file 342184975 1683468865                                       
version 2
run random-0-20230507-22:06:42-4389
attr configname random
attr datetime 20230507-22:06:42
attr experiment random
attr inifile omnetpp.ini
attr iterationvars $cqi=7
attr iterationvarsf cqi=7-
attr measurement $cqi=7
attr network Highway
attr processid 4389
attr repetition 0
attr replication #0
attr resultdir results
attr runnumber 0
attr seedset 0
itervar cqi 7
param *.server.numApps 1
param *.server.app[0].typename "\"Ckx_server\""
param *.server.app[0].localPort 10086
param *.server.app[0].destPort 10067
param *.server.app[0].server_eta_threshold 170
param *.car[*].numApps 1
param *.car[*].app[0].typename "\"Ckx_car\""
param **.routingRecorder.enabled false
param *.playgroundSizeX 20000m
param *.playgroundSizeY 20000m
param *.playgroundSizeZ 50m
param *.veinsManager.host "\"localhost\""
param *.veinsManager.moduleType "\"simu5g.nodes.cars.NRCar\""
param *.veinsManager.moduleName "\"car\""
param *.veinsManager.launchConfig "xmldoc(\"heterogeneous.launchd.xml\")"
param *.veinsManager.updateInterval 0.1s
param *.car[*].mobilityType "\"VeinsInetMobility\""
param **.numBands 50
param **.d2dTxPower 400
param **.ueTxPower 300
param **.eNodeBTxPower 100
param **.d2dModeSelectionType "\"D2DModeSelectionBestCqi\""
param **.fading false
param **.shadowing false
param *.car[*].cellularNic.nrPhy.dynamicCellAssociation true
param *.car[*].masterId 0
param *.car[*].macCellId 0
param *.car[*].nrMasterId 1
param *.car[*].nrMacCellId 1
param **.gNodeB1.macCellId 1
param **.gNodeB1.macNodeId 1
param **.gNodeB2.macCellId 2
param **.gNodeB2.macNodeId 2
param *.car[*].cellularNic.nrPhy.enableHandover true
param *.gNodeB*.cellularNic.phy.enableHandover true
param *.gNodeB*.cellularNic.phy.handoverLatency 50ms
param *.gNodeB*.cellInfo.broadcastMessageInterval 1s
param *.gNodeB*.numX2Apps 1
param *.gNodeB*.x2App[*].server.localPort "5000 + ancestorIndex(1)"
param *.gNodeB1.x2App[0].client.connectAddress "\"gNodeB2%x2ppp0\""
param *.gNodeB2.x2App[0].client.connectAddress "\"gNodeB1%x2ppp0\""
param **.sctp.nagleEnabled true
param **.sctp.enableHeartbeats false
param **.channelControl.alpha 2.75
param **.bandwidth 2.4GHz
param **.bitrate 10Mbps
param **.sat -80dBm
param **.amcMode "\"D2D\""
param *.car[*].cellularNic.d2dInitialMode true
param **.arp.typename "\"GlobalArp\""
param **.harqProcesses 20
param **.maxHarqRtx 10
param **.harqFbEvaluationTimer 6
param **.enableD2DCqiReporting false
param **.usePreconfiguredTxParams true
param **.d2dCqi 7

vector 0 Highway.server.ppp[0].ppp transmissionState:vector ETV
attr interpolationmode sample-hold
attr source transmissionStateChanged
attr title "tx state, vector"
vector 1 Highway.router.ppp[0].ppp transmissionState:vector ETV
attr interpolationmode sample-hold
attr source transmissionStateChanged
attr title "tx state, vector"
vector 2 Highway.router.ppp[1].ppp transmissionState:vector ETV
attr interpolationmode sample-hold
attr source transmissionStateChanged
attr title "tx state, vector"
vector 3 Highway.upf.ppp[0].ppp transmissionState:vector ETV
attr interpolationmode sample-hold
attr source transmissionStateChanged
attr title "tx state, vector"
vector 4 Highway.upf.ppp[1].ppp transmissionState:vector ETV
attr interpolationmode sample-hold
attr source transmissionStateChanged
attr title "tx state, vector"
vector 5 Highway.upf.pppIf.ppp transmissionState:vector ETV
attr interpolationmode sample-hold
attr source transmissionStateChanged
attr title "tx state, vector"
vector 6 Highway.gNodeB1.pppIf.ppp transmissionState:vector ETV
attr interpolationmode sample-hold
attr source transmissionStateChanged
attr title "tx state, vector"
vector 7 Highway.gNodeB1.x2ppp[0].ppp transmissionState:vector ETV
attr interpolationmode sample-hold
attr source transmissionStateChanged
attr title "tx state, vector"
vector 8 Highway.gNodeB1.pppMEHostIf.ppp transmissionState:vector ETV
attr interpolationmode sample-hold
attr source transmissionStateChanged
attr title "tx state, vector"
vector 9 Highway.gNodeB2.pppIf.ppp transmissionState:vector ETV
attr interpolationmode sample-hold
attr source transmissionStateChanged
attr title "tx state, vector"
vector 10 Highway.gNodeB2.x2ppp[0].ppp transmissionState:vector ETV
attr interpolationmode sample-hold
attr source transmissionStateChanged
attr title "tx state, vector"
vector 11 Highway.gNodeB2.pppMEHostIf.ppp transmissionState:vector ETV
attr interpolationmode sample-hold
attr source transmissionStateChanged
attr title "tx state, vector"
vector 12 Highway.gNodeB1.x2ppp[0].ppp rcvdPkFromHl:vector(packetBytes) ETV
attr interpolationmode none
attr source packetReceivedFromUpper
attr title "packets received from higher layer, vector(packetBytes)"
vector 13 Highway.gNodeB1.x2ppp[0].ppp.queue packetPushed:vector(packetBytes) ETV
attr interpolationmode none
attr title "packet pushed, vector(packetBytes)"
vector 14 Highway.gNodeB1.x2ppp[0].ppp.queue queueLength:vector ETV
attr interpolationmode sample-hold
attr source "count(packetPushed) - count(packetPopped) - count(packetRemoved) - count(packetDropped)"
attr title "queue length, vector"
vector 15 Highway.gNodeB1.x2ppp[0].ppp.queue packetPopped:vector(packetBytes) ETV
attr interpolationmode none
attr title "packet popped, vector(packetBytes)"
vector 16 Highway.gNodeB1.x2ppp[0].ppp.queue queueingTime:vector ETV
attr interpolationmode none
attr source queueingTime(packetPopped)
attr title "queueing times, vector"
attr unit s
vector 17 Highway.gNodeB1.x2ppp[0].ppp txPk:vector(packetBytes) ETV
attr interpolationmode none
attr source packetSentToLower
attr title "packets transmitted, vector(packetBytes)"
vector 18 Highway.gNodeB2.x2ppp[0].ppp rcvdPkFromHl:vector(packetBytes) ETV
attr interpolationmode none
attr source packetReceivedFromUpper
attr title "packets received from higher layer, vector(packetBytes)"
vector 19 Highway.gNodeB2.x2ppp[0].ppp.queue packetPushed:vector(packetBytes) ETV
attr interpolationmode none
attr title "packet pushed, vector(packetBytes)"
vector 20 Highway.gNodeB2.x2ppp[0].ppp.queue queueLength:vector ETV
attr interpolationmode sample-hold
attr source "count(packetPushed) - count(packetPopped) - count(packetRemoved) - count(packetDropped)"
attr title "queue length, vector"
vector 21 Highway.gNodeB2.x2ppp[0].ppp.queue packetPopped:vector(packetBytes) ETV
attr interpolationmode none
attr title "packet popped, vector(packetBytes)"
vector 22 Highway.gNodeB2.x2ppp[0].ppp.queue queueingTime:vector ETV
attr interpolationmode none
attr source queueingTime(packetPopped)
attr title "queueing times, vector"
attr unit s
vector 23 Highway.gNodeB2.x2ppp[0].ppp txPk:vector(packetBytes) ETV
attr interpolationmode none
attr source packetSentToLower
attr title "packets transmitted, vector(packetBytes)"
vector 24 Highway.gNodeB2.x2ppp[0].ppp rxPkOk:vector(packetBytes) ETV
attr interpolationmode none
attr source rxPkOk
attr title "packets received OK, vector(packetBytes)"
vector 25 Highway.gNodeB2.x2ppp[0].ppp passedUpPk:vector(packetBytes) ETV
attr interpolationmode none
attr source packetSentToUpper
attr title "packets passed to higher layer, vector(packetBytes)"
vector 26 Highway.gNodeB1.x2ppp[0].ppp rxPkOk:vector(packetBytes) ETV
attr interpolationmode none
attr source rxPkOk
attr title "packets received OK, vector(packetBytes)"
vector 27 Highway.gNodeB1.x2ppp[0].ppp passedUpPk:vector(packetBytes) ETV
attr interpolationmode none
attr source packetSentToUpper
attr title "packets passed to higher layer, vector(packetBytes)"
vector 28 Highway.gNodeB1.cellularNic.mac avgServedBlocksUl:vector ETV
attr source avgServedBlocksUl
attr title "LTE Avg Served Blocks Ul, vector"
attr unit blocks
vector 29 Highway.gNodeB1.cellularNic.mac avgServedBlocksDl:vector ETV
attr source avgServedBlocksDl
attr title "LTE Avg Served Blocks Dl, vector"
attr unit blocks
vector 30 Highway.gNodeB2.cellularNic.mac avgServedBlocksUl:vector ETV
attr source avgServedBlocksUl
attr title "LTE Avg Served Blocks Ul, vector"
attr unit blocks
vector 31 Highway.gNodeB2.cellularNic.mac avgServedBlocksDl:vector ETV
attr source avgServedBlocksDl
attr title "LTE Avg Served Blocks Dl, vector"
attr unit blocks
vector 32 Highway.car[0].cellularNic.phy servingCell:vector ETV
attr source servingCell
attr title "ID of the serving eNodeB for the UE, vector"
attr unit ""
vector 33 Highway.car[0].cellularNic.nrChannelModel[0] measuredSinr:vector ETV
attr source measuredSinr
attr title "SINR measured at feedback computation, vector"
attr unit dB
vector 34 Highway.car[0].cellularNic.nrPhy servingCell:vector ETV
attr source servingCell
attr title "ID of the serving eNodeB for the UE, vector"
attr unit ""
vector 35 Highway.car[1].cellularNic.phy servingCell:vector ETV
attr source servingCell
attr title "ID of the serving eNodeB for the UE, vector"
attr unit ""
vector 36 Highway.car[1].cellularNic.nrChannelModel[0] measuredSinr:vector ETV
attr source measuredSinr
attr title "SINR measured at feedback computation, vector"
attr unit dB
vector 37 Highway.car[1].cellularNic.nrPhy servingCell:vector ETV
attr source servingCell
attr title "ID of the serving eNodeB for the UE, vector"
attr unit ""
vector 38 Highway.car[2].cellularNic.phy servingCell:vector ETV
attr source servingCell
attr title "ID of the serving eNodeB for the UE, vector"
attr unit ""
vector 39 Highway.car[2].cellularNic.nrChannelModel[0] measuredSinr:vector ETV
attr source measuredSinr
attr title "SINR measured at feedback computation, vector"
attr unit dB
vector 40 Highway.car[2].cellularNic.nrPhy servingCell:vector ETV
attr source servingCell
attr title "ID of the serving eNodeB for the UE, vector"
attr unit ""
vector 41 Highway.car[3].cellularNic.phy servingCell:vector ETV
attr source servingCell
attr title "ID of the serving eNodeB for the UE, vector"
attr unit ""
vector 42 Highway.car[3].cellularNic.nrChannelModel[0] measuredSinr:vector ETV
attr source measuredSinr
attr title "SINR measured at feedback computation, vector"
attr unit dB
vector 43 Highway.car[3].cellularNic.nrPhy servingCell:vector ETV
attr source servingCell
attr title "ID of the serving eNodeB for the UE, vector"
attr unit ""
vector 44 Highway.car[4].cellularNic.phy servingCell:vector ETV
attr source servingCell
attr title "ID of the serving eNodeB for the UE, vector"
attr unit ""
vector 45 Highway.car[4].cellularNic.nrChannelModel[0] measuredSinr:vector ETV
attr source measuredSinr
attr title "SINR measured at feedback computation, vector"
attr unit dB
vector 46 Highway.car[4].cellularNic.nrPhy servingCell:vector ETV
attr source servingCell
attr title "ID of the serving eNodeB for the UE, vector"
attr unit ""
vector 47 Highway.car[5].cellularNic.phy servingCell:vector ETV
attr source servingCell
attr title "ID of the serving eNodeB for the UE, vector"
attr unit ""
vector 48 Highway.car[5].cellularNic.nrChannelModel[0] measuredSinr:vector ETV
attr source measuredSinr
attr title "SINR measured at feedback computation, vector"
attr unit dB
vector 49 Highway.car[5].cellularNic.nrPhy servingCell:vector ETV
attr source servingCell
attr title "ID of the serving eNodeB for the UE, vector"
attr unit ""
vector 50 Highway.car[6].cellularNic.phy servingCell:vector ETV
attr source servingCell
attr title "ID of the serving eNodeB for the UE, vector"
attr unit ""
vector 51 Highway.car[6].cellularNic.nrChannelModel[0] measuredSinr:vector ETV
attr source measuredSinr
attr title "SINR measured at feedback computation, vector"
attr unit dB
vector 52 Highway.car[6].cellularNic.nrPhy servingCell:vector ETV
attr source servingCell
attr title "ID of the serving eNodeB for the UE, vector"
attr unit ""
vector 53 Highway.car[7].cellularNic.phy servingCell:vector ETV
attr source servingCell
attr title "ID of the serving eNodeB for the UE, vector"
attr unit ""
vector 54 Highway.car[7].cellularNic.nrChannelModel[0] measuredSinr:vector ETV
attr source measuredSinr
attr title "SINR measured at feedback computation, vector"
attr unit dB
vector 55 Highway.car[7].cellularNic.nrPhy servingCell:vector ETV
attr source servingCell
attr title "ID of the serving eNodeB for the UE, vector"
attr unit ""
vector 56 Highway.car[8].cellularNic.phy servingCell:vector ETV
attr source servingCell
attr title "ID of the serving eNodeB for the UE, vector"
attr unit ""
vector 57 Highway.car[8].cellularNic.nrChannelModel[0] measuredSinr:vector ETV
attr source measuredSinr
attr title "SINR measured at feedback computation, vector"
attr unit dB
vector 58 Highway.car[8].cellularNic.nrPhy servingCell:vector ETV
attr source servingCell
attr title "ID of the serving eNodeB for the UE, vector"
attr unit ""
vector 59 Highway.car[9].cellularNic.phy servingCell:vector ETV
attr source servingCell
attr title "ID of the serving eNodeB for the UE, vector"
attr unit ""
vector 60 Highway.car[9].cellularNic.nrChannelModel[0] measuredSinr:vector ETV
attr source measuredSinr
attr title "SINR measured at feedback computation, vector"
attr unit dB
vector 61 Highway.car[9].cellularNic.nrPhy servingCell:vector ETV
attr source servingCell
attr title "ID of the serving eNodeB for the UE, vector"
attr unit ""
vector 62 Highway.car[10].cellularNic.phy servingCell:vector ETV
attr source servingCell
attr title "ID of the serving eNodeB for the UE, vector"
attr unit ""
vector 63 Highway.car[10].cellularNic.nrChannelModel[0] measuredSinr:vector ETV
attr source measuredSinr
attr title "SINR measured at feedback computation, vector"
attr unit dB
vector 64 Highway.car[10].cellularNic.nrPhy servingCell:vector ETV
attr source servingCell
attr title "ID of the serving eNodeB for the UE, vector"
attr unit ""
vector 65 Highway.car[11].cellularNic.phy servingCell:vector ETV
attr source servingCell
attr title "ID of the serving eNodeB for the UE, vector"
attr unit ""
vector 66 Highway.car[11].cellularNic.nrChannelModel[0] measuredSinr:vector ETV
attr source measuredSinr
attr title "SINR measured at feedback computation, vector"
attr unit dB
vector 67 Highway.car[11].cellularNic.nrPhy servingCell:vector ETV
attr source servingCell
attr title "ID of the serving eNodeB for the UE, vector"
attr unit ""
vector 68 Highway.car[12].cellularNic.phy servingCell:vector ETV
attr source servingCell
attr title "ID of the serving eNodeB for the UE, vector"
attr unit ""
vector 69 Highway.car[12].cellularNic.nrChannelModel[0] measuredSinr:vector ETV
attr source measuredSinr
attr title "SINR measured at feedback computation, vector"
attr unit dB
vector 70 Highway.car[12].cellularNic.nrPhy servingCell:vector ETV
attr source servingCell
attr title "ID of the serving eNodeB for the UE, vector"
attr unit ""
vector 71 Highway.car[13].cellularNic.phy servingCell:vector ETV
attr source servingCell
attr title "ID of the serving eNodeB for the UE, vector"
attr unit ""
vector 72 Highway.car[13].cellularNic.nrChannelModel[0] measuredSinr:vector ETV
attr source measuredSinr
attr title "SINR measured at feedback computation, vector"
attr unit dB
vector 73 Highway.car[13].cellularNic.nrPhy servingCell:vector ETV
attr source servingCell
attr title "ID of the serving eNodeB for the UE, vector"
attr unit ""
vector 74 Highway.car[14].cellularNic.phy servingCell:vector ETV
attr source servingCell
attr title "ID of the serving eNodeB for the UE, vector"
attr unit ""
vector 75 Highway.car[14].cellularNic.nrChannelModel[0] measuredSinr:vector ETV
attr source measuredSinr
attr title "SINR measured at feedback computation, vector"
attr unit dB
vector 76 Highway.car[14].cellularNic.nrPhy servingCell:vector ETV
attr source servingCell
attr title "ID of the serving eNodeB for the UE, vector"
attr unit ""
vector 77 Highway.car[15].cellularNic.phy servingCell:vector ETV
attr source servingCell
attr title "ID of the serving eNodeB for the UE, vector"
attr unit ""
vector 78 Highway.car[15].cellularNic.nrChannelModel[0] measuredSinr:vector ETV
attr source measuredSinr
attr title "SINR measured at feedback computation, vector"
attr unit dB
vector 79 Highway.car[15].cellularNic.nrPhy servingCell:vector ETV
attr source servingCell
attr title "ID of the serving eNodeB for the UE, vector"
attr unit ""
vector 80 Highway.car[16].cellularNic.phy servingCell:vector ETV
attr source servingCell
attr title "ID of the serving eNodeB for the UE, vector"
attr unit ""
vector 81 Highway.car[16].cellularNic.nrChannelModel[0] measuredSinr:vector ETV
attr source measuredSinr
attr title "SINR measured at feedback computation, vector"
attr unit dB
vector 82 Highway.car[16].cellularNic.nrPhy servingCell:vector ETV
attr source servingCell
attr title "ID of the serving eNodeB for the UE, vector"
attr unit ""
vector 83 Highway.car[17].cellularNic.phy servingCell:vector ETV
attr source servingCell
attr title "ID of the serving eNodeB for the UE, vector"
attr unit ""
vector 84 Highway.car[17].cellularNic.nrChannelModel[0] measuredSinr:vector ETV
attr source measuredSinr
attr title "SINR measured at feedback computation, vector"
attr unit dB
vector 85 Highway.car[17].cellularNic.nrPhy servingCell:vector ETV
attr source servingCell
attr title "ID of the serving eNodeB for the UE, vector"
attr unit ""
vector 86 Highway.car[18].cellularNic.phy servingCell:vector ETV
attr source servingCell
attr title "ID of the serving eNodeB for the UE, vector"
attr unit ""
vector 87 Highway.car[18].cellularNic.nrChannelModel[0] measuredSinr:vector ETV
attr source measuredSinr
attr title "SINR measured at feedback computation, vector"
attr unit dB
vector 88 Highway.car[18].cellularNic.nrPhy servingCell:vector ETV
attr source servingCell
attr title "ID of the serving eNodeB for the UE, vector"
attr unit ""
vector 89 Highway.car[19].cellularNic.phy servingCell:vector ETV
attr source servingCell
attr title "ID of the serving eNodeB for the UE, vector"
attr unit ""
vector 90 Highway.car[19].cellularNic.nrChannelModel[0] measuredSinr:vector ETV
attr source measuredSinr
attr title "SINR measured at feedback computation, vector"
attr unit dB
vector 91 Highway.car[19].cellularNic.nrPhy servingCell:vector ETV
attr source servingCell
attr title "ID of the serving eNodeB for the UE, vector"
attr unit ""
vector 92 Highway.car[20].cellularNic.phy servingCell:vector ETV
attr source servingCell
attr title "ID of the serving eNodeB for the UE, vector"
attr unit ""
vector 93 Highway.car[20].cellularNic.nrChannelModel[0] measuredSinr:vector ETV
attr source measuredSinr
attr title "SINR measured at feedback computation, vector"
attr unit dB
vector 94 Highway.car[20].cellularNic.nrPhy servingCell:vector ETV
attr source servingCell
attr title "ID of the serving eNodeB for the UE, vector"
attr unit ""
vector 95 Highway.car[21].cellularNic.phy servingCell:vector ETV
attr source servingCell
attr title "ID of the serving eNodeB for the UE, vector"
attr unit ""
vector 96 Highway.car[21].cellularNic.nrChannelModel[0] measuredSinr:vector ETV
attr source measuredSinr
attr title "SINR measured at feedback computation, vector"
attr unit dB
vector 97 Highway.car[21].cellularNic.nrPhy servingCell:vector ETV
attr source servingCell
attr title "ID of the serving eNodeB for the UE, vector"
attr unit ""
vector 98 Highway.car[22].cellularNic.phy servingCell:vector ETV
attr source servingCell
attr title "ID of the serving eNodeB for the UE, vector"
attr unit ""
vector 99 Highway.car[22].cellularNic.nrChannelModel[0] measuredSinr:vector ETV
attr source measuredSinr
attr title "SINR measured at feedback computation, vector"
attr unit dB
vector 100 Highway.car[22].cellularNic.nrPhy servingCell:vector ETV
attr source servingCell
attr title "ID of the serving eNodeB for the UE, vector"
attr unit ""
vector 101 Highway.car[23].cellularNic.phy servingCell:vector ETV
attr source servingCell
attr title "ID of the serving eNodeB for the UE, vector"
attr unit ""
vector 102 Highway.car[23].cellularNic.nrChannelModel[0] measuredSinr:vector ETV
attr source measuredSinr
attr title "SINR measured at feedback computation, vector"
attr unit dB
vector 103 Highway.car[23].cellularNic.nrPhy servingCell:vector ETV
attr source servingCell
attr title "ID of the serving eNodeB for the UE, vector"
attr unit ""
vector 104 Highway.car[24].cellularNic.phy servingCell:vector ETV
attr source servingCell
attr title "ID of the serving eNodeB for the UE, vector"
attr unit ""
vector 105 Highway.car[24].cellularNic.nrChannelModel[0] measuredSinr:vector ETV
attr source measuredSinr
attr title "SINR measured at feedback computation, vector"
attr unit dB
vector 106 Highway.car[24].cellularNic.nrPhy servingCell:vector ETV
attr source servingCell
attr title "ID of the serving eNodeB for the UE, vector"
attr unit ""
vector 107 Highway.car[25].cellularNic.phy servingCell:vector ETV
attr source servingCell
attr title "ID of the serving eNodeB for the UE, vector"
attr unit ""
vector 108 Highway.car[25].cellularNic.nrChannelModel[0] measuredSinr:vector ETV
attr source measuredSinr
attr title "SINR measured at feedback computation, vector"
attr unit dB
vector 109 Highway.car[25].cellularNic.nrPhy servingCell:vector ETV
attr source servingCell
attr title "ID of the serving eNodeB for the UE, vector"
attr unit ""
vector 110 Highway.car[26].cellularNic.phy servingCell:vector ETV
attr source servingCell
attr title "ID of the serving eNodeB for the UE, vector"
attr unit ""
vector 111 Highway.car[26].cellularNic.nrChannelModel[0] measuredSinr:vector ETV
attr source measuredSinr
attr title "SINR measured at feedback computation, vector"
attr unit dB
vector 112 Highway.car[26].cellularNic.nrPhy servingCell:vector ETV
attr source servingCell
attr title "ID of the serving eNodeB for the UE, vector"
attr unit ""
vector 113 Highway.car[27].cellularNic.phy servingCell:vector ETV
attr source servingCell
attr title "ID of the serving eNodeB for the UE, vector"
attr unit ""
vector 114 Highway.car[27].cellularNic.nrChannelModel[0] measuredSinr:vector ETV
attr source measuredSinr
attr title "SINR measured at feedback computation, vector"
attr unit dB
vector 115 Highway.car[27].cellularNic.nrPhy servingCell:vector ETV
attr source servingCell
attr title "ID of the serving eNodeB for the UE, vector"
attr unit ""
vector 116 Highway.car[28].cellularNic.phy servingCell:vector ETV
attr source servingCell
attr title "ID of the serving eNodeB for the UE, vector"
attr unit ""
vector 117 Highway.car[28].cellularNic.nrChannelModel[0] measuredSinr:vector ETV
attr source measuredSinr
attr title "SINR measured at feedback computation, vector"
attr unit dB
vector 118 Highway.car[28].cellularNic.nrPhy servingCell:vector ETV
attr source servingCell
attr title "ID of the serving eNodeB for the UE, vector"
attr unit ""
vector 119 Highway.car[29].cellularNic.phy servingCell:vector ETV
attr source servingCell
attr title "ID of the serving eNodeB for the UE, vector"
attr unit ""
vector 120 Highway.car[29].cellularNic.nrChannelModel[0] measuredSinr:vector ETV
attr source measuredSinr
attr title "SINR measured at feedback computation, vector"
attr unit dB
vector 121 Highway.car[29].cellularNic.nrPhy servingCell:vector ETV
attr source servingCell
attr title "ID of the serving eNodeB for the UE, vector"
attr unit ""
vector 122 Highway.car[30].cellularNic.phy servingCell:vector ETV
attr source servingCell
attr title "ID of the serving eNodeB for the UE, vector"
attr unit ""
vector 123 Highway.car[30].cellularNic.nrChannelModel[0] measuredSinr:vector ETV
attr source measuredSinr
attr title "SINR measured at feedback computation, vector"
attr unit dB
vector 124 Highway.car[30].cellularNic.nrPhy servingCell:vector ETV
attr source servingCell
attr title "ID of the serving eNodeB for the UE, vector"
attr unit ""
vector 125 Highway.car[31].cellularNic.phy servingCell:vector ETV
attr source servingCell
attr title "ID of the serving eNodeB for the UE, vector"
attr unit ""
vector 126 Highway.car[31].cellularNic.nrChannelModel[0] measuredSinr:vector ETV
attr source measuredSinr
attr title "SINR measured at feedback computation, vector"
attr unit dB
vector 127 Highway.car[31].cellularNic.nrPhy servingCell:vector ETV
attr source servingCell
attr title "ID of the serving eNodeB for the UE, vector"
attr unit ""
vector 128 Highway.car[32].cellularNic.phy servingCell:vector ETV
attr source servingCell
attr title "ID of the serving eNodeB for the UE, vector"
attr unit ""
vector 129 Highway.car[32].cellularNic.nrChannelModel[0] measuredSinr:vector ETV
attr source measuredSinr
attr title "SINR measured at feedback computation, vector"
attr unit dB
vector 130 Highway.car[32].cellularNic.nrPhy servingCell:vector ETV
attr source servingCell
attr title "ID of the serving eNodeB for the UE, vector"
attr unit ""
vector 131 Highway.car[33].cellularNic.phy servingCell:vector ETV
attr source servingCell
attr title "ID of the serving eNodeB for the UE, vector"
attr unit ""
vector 132 Highway.car[33].cellularNic.nrChannelModel[0] measuredSinr:vector ETV
attr source measuredSinr
attr title "SINR measured at feedback computation, vector"
attr unit dB
vector 133 Highway.car[33].cellularNic.nrPhy servingCell:vector ETV
attr source servingCell
attr title "ID of the serving eNodeB for the UE, vector"
attr unit ""
vector 134 Highway.car[34].cellularNic.phy servingCell:vector ETV
attr source servingCell
attr title "ID of the serving eNodeB for the UE, vector"
attr unit ""
vector 135 Highway.car[34].cellularNic.nrChannelModel[0] measuredSinr:vector ETV
attr source measuredSinr
attr title "SINR measured at feedback computation, vector"
attr unit dB
vector 136 Highway.car[34].cellularNic.nrPhy servingCell:vector ETV
attr source servingCell
attr title "ID of the serving eNodeB for the UE, vector"
attr unit ""
vector 137 Highway.car[35].cellularNic.phy servingCell:vector ETV
attr source servingCell
attr title "ID of the serving eNodeB for the UE, vector"
attr unit ""
vector 138 Highway.car[35].cellularNic.nrChannelModel[0] measuredSinr:vector ETV
attr source measuredSinr
attr title "SINR measured at feedback computation, vector"
attr unit dB
vector 139 Highway.car[35].cellularNic.nrPhy servingCell:vector ETV
attr source servingCell
attr title "ID of the serving eNodeB for the UE, vector"
attr unit ""
vector 140 Highway.car[36].cellularNic.phy servingCell:vector ETV
attr source servingCell
attr title "ID of the serving eNodeB for the UE, vector"
attr unit ""
vector 141 Highway.car[36].cellularNic.nrChannelModel[0] measuredSinr:vector ETV
attr source measuredSinr
attr title "SINR measured at feedback computation, vector"
attr unit dB
vector 142 Highway.car[36].cellularNic.nrPhy servingCell:vector ETV
attr source servingCell
attr title "ID of the serving eNodeB for the UE, vector"
attr unit ""
vector 143 Highway.car[37].cellularNic.phy servingCell:vector ETV
attr source servingCell
attr title "ID of the serving eNodeB for the UE, vector"
attr unit ""
vector 144 Highway.car[37].cellularNic.nrChannelModel[0] measuredSinr:vector ETV
attr source measuredSinr
attr title "SINR measured at feedback computation, vector"
attr unit dB
vector 145 Highway.car[37].cellularNic.nrPhy servingCell:vector ETV
attr source servingCell
attr title "ID of the serving eNodeB for the UE, vector"
attr unit ""
vector 146 Highway.car[38].cellularNic.phy servingCell:vector ETV
attr source servingCell
attr title "ID of the serving eNodeB for the UE, vector"
attr unit ""
vector 147 Highway.car[38].cellularNic.nrChannelModel[0] measuredSinr:vector ETV
attr source measuredSinr
attr title "SINR measured at feedback computation, vector"
attr unit dB
vector 148 Highway.car[38].cellularNic.nrPhy servingCell:vector ETV
attr source servingCell
attr title "ID of the serving eNodeB for the UE, vector"
attr unit ""
vector 149 Highway.car[39].cellularNic.phy servingCell:vector ETV
attr source servingCell
attr title "ID of the serving eNodeB for the UE, vector"
attr unit ""
vector 150 Highway.car[39].cellularNic.nrChannelModel[0] measuredSinr:vector ETV
attr source measuredSinr
attr title "SINR measured at feedback computation, vector"
attr unit dB
vector 151 Highway.car[39].cellularNic.nrPhy servingCell:vector ETV
attr source servingCell
attr title "ID of the serving eNodeB for the UE, vector"
attr unit ""
vector 152 Highway.car[40].cellularNic.phy servingCell:vector ETV
attr source servingCell
attr title "ID of the serving eNodeB for the UE, vector"
attr unit ""
vector 153 Highway.car[40].cellularNic.nrChannelModel[0] measuredSinr:vector ETV
attr source measuredSinr
attr title "SINR measured at feedback computation, vector"
attr unit dB
vector 154 Highway.car[40].cellularNic.nrPhy servingCell:vector ETV
attr source servingCell
attr title "ID of the serving eNodeB for the UE, vector"
attr unit ""
vector 155 Highway.car[41].cellularNic.phy servingCell:vector ETV
attr source servingCell
attr title "ID of the serving eNodeB for the UE, vector"
attr unit ""
vector 156 Highway.car[41].cellularNic.nrChannelModel[0] measuredSinr:vector ETV
attr source measuredSinr
attr title "SINR measured at feedback computation, vector"
attr unit dB
vector 157 Highway.car[41].cellularNic.nrPhy servingCell:vector ETV
attr source servingCell
attr title "ID of the serving eNodeB for the UE, vector"
attr unit ""
vector 158 Highway.car[42].cellularNic.phy servingCell:vector ETV
attr source servingCell
attr title "ID of the serving eNodeB for the UE, vector"
attr unit ""
vector 159 Highway.car[42].cellularNic.nrChannelModel[0] measuredSinr:vector ETV
attr source measuredSinr
attr title "SINR measured at feedback computation, vector"
attr unit dB
vector 160 Highway.car[42].cellularNic.nrPhy servingCell:vector ETV
attr source servingCell
attr title "ID of the serving eNodeB for the UE, vector"
attr unit ""
vector 161 Highway.car[43].cellularNic.phy servingCell:vector ETV
attr source servingCell
attr title "ID of the serving eNodeB for the UE, vector"
attr unit ""
vector 162 Highway.car[43].cellularNic.nrChannelModel[0] measuredSinr:vector ETV
attr source measuredSinr
attr title "SINR measured at feedback computation, vector"
attr unit dB
vector 163 Highway.car[43].cellularNic.nrPhy servingCell:vector ETV
attr source servingCell
attr title "ID of the serving eNodeB for the UE, vector"
attr unit ""
vector 164 Highway.car[44].cellularNic.phy servingCell:vector ETV
attr source servingCell
attr title "ID of the serving eNodeB for the UE, vector"
attr unit ""
vector 165 Highway.car[44].cellularNic.nrChannelModel[0] measuredSinr:vector ETV
attr source measuredSinr
attr title "SINR measured at feedback computation, vector"
attr unit dB
vector 166 Highway.car[44].cellularNic.nrPhy servingCell:vector ETV
attr source servingCell
attr title "ID of the serving eNodeB for the UE, vector"
attr unit ""
vector 167 Highway.gNodeB1.cellularNic.channelModel[0] measuredSinr:vector ETV
attr source measuredSinr
attr title "SINR measured at feedback computation, vector"
attr unit dB
vector 168 Highway.gNodeB1.cellularNic.mac receivedPacketFromLowerLayer:vector(packetBytes) ETV
attr interpolationmode none
attr source receivedPacketFromLowerLayer
vector 169 Highway.car[45].cellularNic.phy servingCell:vector ETV
attr source servingCell
attr title "ID of the serving eNodeB for the UE, vector"
attr unit ""
vector 170 Highway.car[45].cellularNic.nrChannelModel[0] measuredSinr:vector ETV
attr source measuredSinr
attr title "SINR measured at feedback computation, vector"
attr unit dB
vector 171 Highway.car[45].cellularNic.nrPhy servingCell:vector ETV
attr source servingCell
attr title "ID of the serving eNodeB for the UE, vector"
attr unit ""
vector 172 Highway.car[46].cellularNic.phy servingCell:vector ETV
attr source servingCell
attr title "ID of the serving eNodeB for the UE, vector"
attr unit ""
vector 173 Highway.car[46].cellularNic.nrChannelModel[0] measuredSinr:vector ETV
attr source measuredSinr
attr title "SINR measured at feedback computation, vector"
attr unit dB
vector 174 Highway.car[46].cellularNic.nrPhy servingCell:vector ETV
attr source servingCell
attr title "ID of the serving eNodeB for the UE, vector"
attr unit ""
vector 175 Highway.car[47].cellularNic.phy servingCell:vector ETV
attr source servingCell
attr title "ID of the serving eNodeB for the UE, vector"
attr unit ""
vector 176 Highway.car[47].cellularNic.nrChannelModel[0] measuredSinr:vector ETV
attr source measuredSinr
attr title "SINR measured at feedback computation, vector"
attr unit dB
vector 177 Highway.car[47].cellularNic.nrPhy servingCell:vector ETV
attr source servingCell
attr title "ID of the serving eNodeB for the UE, vector"
attr unit ""
vector 178 Highway.car[48].cellularNic.phy servingCell:vector ETV
attr source servingCell
attr title "ID of the serving eNodeB for the UE, vector"
attr unit ""
vector 179 Highway.car[48].cellularNic.nrChannelModel[0] measuredSinr:vector ETV
attr source measuredSinr
attr title "SINR measured at feedback computation, vector"
attr unit dB
vector 180 Highway.car[48].cellularNic.nrPhy servingCell:vector ETV
attr source servingCell
attr title "ID of the serving eNodeB for the UE, vector"
attr unit ""
vector 181 Highway.car[49].cellularNic.phy servingCell:vector ETV
attr source servingCell
attr title "ID of the serving eNodeB for the UE, vector"
attr unit ""
vector 182 Highway.car[49].cellularNic.nrChannelModel[0] measuredSinr:vector ETV
attr source measuredSinr
attr title "SINR measured at feedback computation, vector"
attr unit dB
vector 183 Highway.car[49].cellularNic.nrPhy servingCell:vector ETV
attr source servingCell
attr title "ID of the serving eNodeB for the UE, vector"
attr unit ""
vector 184 Highway.car[50].cellularNic.phy servingCell:vector ETV
attr source servingCell
attr title "ID of the serving eNodeB for the UE, vector"
attr unit ""
vector 185 Highway.car[50].cellularNic.nrChannelModel[0] measuredSinr:vector ETV
attr source measuredSinr
attr title "SINR measured at feedback computation, vector"
attr unit dB
vector 186 Highway.car[50].cellularNic.nrPhy servingCell:vector ETV
attr source servingCell
attr title "ID of the serving eNodeB for the UE, vector"
attr unit ""
vector 187 Highway.car[51].cellularNic.phy servingCell:vector ETV
attr source servingCell
attr title "ID of the serving eNodeB for the UE, vector"
attr unit ""
vector 188 Highway.car[51].cellularNic.nrChannelModel[0] measuredSinr:vector ETV
attr source measuredSinr
attr title "SINR measured at feedback computation, vector"
attr unit dB
vector 189 Highway.car[51].cellularNic.nrPhy servingCell:vector ETV
attr source servingCell
attr title "ID of the serving eNodeB for the UE, vector"
attr unit ""
vector 190 Highway.car[52].cellularNic.phy servingCell:vector ETV
attr source servingCell
attr title "ID of the serving eNodeB for the UE, vector"
attr unit ""
vector 191 Highway.car[52].cellularNic.nrChannelModel[0] measuredSinr:vector ETV
attr source measuredSinr
attr title "SINR measured at feedback computation, vector"
attr unit dB
vector 192 Highway.car[52].cellularNic.nrPhy servingCell:vector ETV
attr source servingCell
attr title "ID of the serving eNodeB for the UE, vector"
attr unit ""
vector 193 Highway.car[53].cellularNic.phy servingCell:vector ETV
attr source servingCell
attr title "ID of the serving eNodeB for the UE, vector"
attr unit ""
vector 194 Highway.car[53].cellularNic.nrChannelModel[0] measuredSinr:vector ETV
attr source measuredSinr
attr title "SINR measured at feedback computation, vector"
attr unit dB
vector 195 Highway.car[53].cellularNic.nrPhy servingCell:vector ETV
attr source servingCell
attr title "ID of the serving eNodeB for the UE, vector"
attr unit ""
vector 196 Highway.car[54].cellularNic.phy servingCell:vector ETV
attr source servingCell
attr title "ID of the serving eNodeB for the UE, vector"
attr unit ""
vector 197 Highway.car[54].cellularNic.nrChannelModel[0] measuredSinr:vector ETV
attr source measuredSinr
attr title "SINR measured at feedback computation, vector"
attr unit dB
vector 198 Highway.car[54].cellularNic.nrPhy servingCell:vector ETV
attr source servingCell
attr title "ID of the serving eNodeB for the UE, vector"
attr unit ""
vector 199 Highway.car[55].cellularNic.phy servingCell:vector ETV
attr source servingCell
attr title "ID of the serving eNodeB for the UE, vector"
attr unit ""
vector 200 Highway.car[55].cellularNic.nrChannelModel[0] measuredSinr:vector ETV
attr source measuredSinr
attr title "SINR measured at feedback computation, vector"
attr unit dB
vector 201 Highway.car[55].cellularNic.nrPhy servingCell:vector ETV
attr source servingCell
attr title "ID of the serving eNodeB for the UE, vector"
attr unit ""
vector 202 Highway.car[56].cellularNic.phy servingCell:vector ETV
attr source servingCell
attr title "ID of the serving eNodeB for the UE, vector"
attr unit ""
vector 203 Highway.car[56].cellularNic.nrChannelModel[0] measuredSinr:vector ETV
attr source measuredSinr
attr title "SINR measured at feedback computation, vector"
attr unit dB
vector 204 Highway.car[56].cellularNic.nrPhy servingCell:vector ETV
attr source servingCell
attr title "ID of the serving eNodeB for the UE, vector"
attr unit ""
vector 205 Highway.car[57].cellularNic.phy servingCell:vector ETV
attr source servingCell
attr title "ID of the serving eNodeB for the UE, vector"
attr unit ""
vector 206 Highway.car[57].cellularNic.nrChannelModel[0] measuredSinr:vector ETV
attr source measuredSinr
attr title "SINR measured at feedback computation, vector"
attr unit dB
vector 207 Highway.car[57].cellularNic.nrPhy servingCell:vector ETV
attr source servingCell
attr title "ID of the serving eNodeB for the UE, vector"
attr unit ""
vector 208 Highway.car[58].cellularNic.phy servingCell:vector ETV
attr source servingCell
attr title "ID of the serving eNodeB for the UE, vector"
attr unit ""
vector 209 Highway.car[58].cellularNic.nrChannelModel[0] measuredSinr:vector ETV
attr source measuredSinr
attr title "SINR measured at feedback computation, vector"
attr unit dB
vector 210 Highway.car[58].cellularNic.nrPhy servingCell:vector ETV
attr source servingCell
attr title "ID of the serving eNodeB for the UE, vector"
attr unit ""
vector 211 Highway.car[59].cellularNic.phy servingCell:vector ETV
attr source servingCell
attr title "ID of the serving eNodeB for the UE, vector"
attr unit ""
vector 212 Highway.car[59].cellularNic.nrChannelModel[0] measuredSinr:vector ETV
attr source measuredSinr
attr title "SINR measured at feedback computation, vector"
attr unit dB
vector 213 Highway.car[59].cellularNic.nrPhy servingCell:vector ETV
attr source servingCell
attr title "ID of the serving eNodeB for the UE, vector"
attr unit ""
vector 214 Highway.car[60].cellularNic.phy servingCell:vector ETV
attr source servingCell
attr title "ID of the serving eNodeB for the UE, vector"
attr unit ""
vector 215 Highway.car[60].cellularNic.nrChannelModel[0] measuredSinr:vector ETV
attr source measuredSinr
attr title "SINR measured at feedback computation, vector"
attr unit dB
vector 216 Highway.car[60].cellularNic.nrPhy servingCell:vector ETV
attr source servingCell
attr title "ID of the serving eNodeB for the UE, vector"
attr unit ""
vector 217 Highway.car[61].cellularNic.phy servingCell:vector ETV
attr source servingCell
attr title "ID of the serving eNodeB for the UE, vector"
attr unit ""
vector 218 Highway.car[61].cellularNic.nrChannelModel[0] measuredSinr:vector ETV
attr source measuredSinr
attr title "SINR measured at feedback computation, vector"
attr unit dB
vector 219 Highway.car[61].cellularNic.nrPhy servingCell:vector ETV
attr source servingCell
attr title "ID of the serving eNodeB for the UE, vector"
attr unit ""
vector 220 Highway.car[62].cellularNic.phy servingCell:vector ETV
attr source servingCell
attr title "ID of the serving eNodeB for the UE, vector"
attr unit ""
vector 221 Highway.car[62].cellularNic.nrChannelModel[0] measuredSinr:vector ETV
attr source measuredSinr
attr title "SINR measured at feedback computation, vector"
attr unit dB
vector 222 Highway.car[62].cellularNic.nrPhy servingCell:vector ETV
attr source servingCell
attr title "ID of the serving eNodeB for the UE, vector"
attr unit ""
vector 223 Highway.car[63].cellularNic.phy servingCell:vector ETV
attr source servingCell
attr title "ID of the serving eNodeB for the UE, vector"
attr unit ""
vector 224 Highway.car[63].cellularNic.nrChannelModel[0] measuredSinr:vector ETV
attr source measuredSinr
attr title "SINR measured at feedback computation, vector"
attr unit dB
vector 225 Highway.car[63].cellularNic.nrPhy servingCell:vector ETV
attr source servingCell
attr title "ID of the serving eNodeB for the UE, vector"
attr unit ""
vector 226 Highway.car[64].cellularNic.phy servingCell:vector ETV
attr source servingCell
attr title "ID of the serving eNodeB for the UE, vector"
attr unit ""
vector 227 Highway.car[64].cellularNic.nrChannelModel[0] measuredSinr:vector ETV
attr source measuredSinr
attr title "SINR measured at feedback computation, vector"
attr unit dB
vector 228 Highway.car[64].cellularNic.nrPhy servingCell:vector ETV
attr source servingCell
attr title "ID of the serving eNodeB for the UE, vector"
attr unit ""
vector 229 Highway.car[65].cellularNic.phy servingCell:vector ETV
attr source servingCell
attr title "ID of the serving eNodeB for the UE, vector"
attr unit ""
vector 230 Highway.car[65].cellularNic.nrChannelModel[0] measuredSinr:vector ETV
attr source measuredSinr
attr title "SINR measured at feedback computation, vector"
attr unit dB
vector 231 Highway.car[65].cellularNic.nrPhy servingCell:vector ETV
attr source servingCell
attr title "ID of the serving eNodeB for the UE, vector"
attr unit ""
vector 232 Highway.car[66].cellularNic.phy servingCell:vector ETV
attr source servingCell
attr title "ID of the serving eNodeB for the UE, vector"
attr unit ""
vector 233 Highway.car[66].cellularNic.nrChannelModel[0] measuredSinr:vector ETV
attr source measuredSinr
attr title "SINR measured at feedback computation, vector"
attr unit dB
vector 234 Highway.car[66].cellularNic.nrPhy servingCell:vector ETV
attr source servingCell
attr title "ID of the serving eNodeB for the UE, vector"
attr unit ""
vector 235 Highway.car[67].cellularNic.phy servingCell:vector ETV
attr source servingCell
attr title "ID of the serving eNodeB for the UE, vector"
attr unit ""
vector 236 Highway.car[67].cellularNic.nrChannelModel[0] measuredSinr:vector ETV
attr source measuredSinr
attr title "SINR measured at feedback computation, vector"
attr unit dB
vector 237 Highway.car[67].cellularNic.nrPhy servingCell:vector ETV
attr source servingCell
attr title "ID of the serving eNodeB for the UE, vector"
attr unit ""
vector 238 Highway.car[68].cellularNic.phy servingCell:vector ETV
attr source servingCell
attr title "ID of the serving eNodeB for the UE, vector"
attr unit ""
vector 239 Highway.car[68].cellularNic.nrChannelModel[0] measuredSinr:vector ETV
attr source measuredSinr
attr title "SINR measured at feedback computation, vector"
attr unit dB
vector 240 Highway.car[68].cellularNic.nrPhy servingCell:vector ETV
attr source servingCell
attr title "ID of the serving eNodeB for the UE, vector"
attr unit ""
vector 241 Highway.car[69].cellularNic.phy servingCell:vector ETV
attr source servingCell
attr title "ID of the serving eNodeB for the UE, vector"
attr unit ""
vector 242 Highway.car[69].cellularNic.nrChannelModel[0] measuredSinr:vector ETV
attr source measuredSinr
attr title "SINR measured at feedback computation, vector"
attr unit dB
vector 243 Highway.car[69].cellularNic.nrPhy servingCell:vector ETV
attr source servingCell
attr title "ID of the serving eNodeB for the UE, vector"
attr unit ""
vector 244 Highway.car[70].cellularNic.phy servingCell:vector ETV
attr source servingCell
attr title "ID of the serving eNodeB for the UE, vector"
attr unit ""
vector 245 Highway.car[70].cellularNic.nrChannelModel[0] measuredSinr:vector ETV
attr source measuredSinr
attr title "SINR measured at feedback computation, vector"
attr unit dB
vector 246 Highway.car[70].cellularNic.nrPhy servingCell:vector ETV
attr source servingCell
attr title "ID of the serving eNodeB for the UE, vector"
attr unit ""
vector 247 Highway.car[71].cellularNic.phy servingCell:vector ETV
attr source servingCell
attr title "ID of the serving eNodeB for the UE, vector"
attr unit ""
vector 248 Highway.car[71].cellularNic.nrChannelModel[0] measuredSinr:vector ETV
attr source measuredSinr
attr title "SINR measured at feedback computation, vector"
attr unit dB
vector 249 Highway.car[71].cellularNic.nrPhy servingCell:vector ETV
attr source servingCell
attr title "ID of the serving eNodeB for the UE, vector"
attr unit ""
vector 250 Highway.car[72].cellularNic.phy servingCell:vector ETV
attr source servingCell
attr title "ID of the serving eNodeB for the UE, vector"
attr unit ""
vector 251 Highway.car[72].cellularNic.nrChannelModel[0] measuredSinr:vector ETV
attr source measuredSinr
attr title "SINR measured at feedback computation, vector"
attr unit dB
vector 252 Highway.car[72].cellularNic.nrPhy servingCell:vector ETV
attr source servingCell
attr title "ID of the serving eNodeB for the UE, vector"
attr unit ""
vector 253 Highway.car[73].cellularNic.phy servingCell:vector ETV
attr source servingCell
attr title "ID of the serving eNodeB for the UE, vector"
attr unit ""
vector 254 Highway.car[73].cellularNic.nrChannelModel[0] measuredSinr:vector ETV
attr source measuredSinr
attr title "SINR measured at feedback computation, vector"
attr unit dB
vector 255 Highway.car[73].cellularNic.nrPhy servingCell:vector ETV
attr source servingCell
attr title "ID of the serving eNodeB for the UE, vector"
attr unit ""
vector 256 Highway.car[74].cellularNic.phy servingCell:vector ETV
attr source servingCell
attr title "ID of the serving eNodeB for the UE, vector"
attr unit ""
vector 257 Highway.car[74].cellularNic.nrChannelModel[0] measuredSinr:vector ETV
attr source measuredSinr
attr title "SINR measured at feedback computation, vector"
attr unit dB
vector 258 Highway.car[74].cellularNic.nrPhy servingCell:vector ETV
attr source servingCell
attr title "ID of the serving eNodeB for the UE, vector"
attr unit ""
vector 259 Highway.car[75].cellularNic.phy servingCell:vector ETV
attr source servingCell
attr title "ID of the serving eNodeB for the UE, vector"
attr unit ""
vector 260 Highway.car[75].cellularNic.nrChannelModel[0] measuredSinr:vector ETV
attr source measuredSinr
attr title "SINR measured at feedback computation, vector"
attr unit dB
vector 261 Highway.car[75].cellularNic.nrPhy servingCell:vector ETV
attr source servingCell
attr title "ID of the serving eNodeB for the UE, vector"
attr unit ""
vector 262 Highway.car[76].cellularNic.phy servingCell:vector ETV
attr source servingCell
attr title "ID of the serving eNodeB for the UE, vector"
attr unit ""
vector 263 Highway.car[76].cellularNic.nrChannelModel[0] measuredSinr:vector ETV
attr source measuredSinr
attr title "SINR measured at feedback computation, vector"
attr unit dB
vector 264 Highway.car[76].cellularNic.nrPhy servingCell:vector ETV
attr source servingCell
attr title "ID of the serving eNodeB for the UE, vector"
attr unit ""
vector 265 Highway.car[77].cellularNic.phy servingCell:vector ETV
attr source servingCell
attr title "ID of the serving eNodeB for the UE, vector"
attr unit ""
vector 266 Highway.car[77].cellularNic.nrChannelModel[0] measuredSinr:vector ETV
attr source measuredSinr
attr title "SINR measured at feedback computation, vector"
attr unit dB
vector 267 Highway.car[77].cellularNic.nrPhy servingCell:vector ETV
attr source servingCell
attr title "ID of the serving eNodeB for the UE, vector"
attr unit ""
vector 268 Highway.car[78].cellularNic.phy servingCell:vector ETV
attr source servingCell
attr title "ID of the serving eNodeB for the UE, vector"
attr unit ""
vector 269 Highway.car[78].cellularNic.nrChannelModel[0] measuredSinr:vector ETV
attr source measuredSinr
attr title "SINR measured at feedback computation, vector"
attr unit dB
vector 270 Highway.car[78].cellularNic.nrPhy servingCell:vector ETV
attr source servingCell
attr title "ID of the serving eNodeB for the UE, vector"
attr unit ""
vector 271 Highway.car[79].cellularNic.phy servingCell:vector ETV
attr source servingCell
attr title "ID of the serving eNodeB for the UE, vector"
attr unit ""
vector 272 Highway.car[79].cellularNic.nrChannelModel[0] measuredSinr:vector ETV
attr source measuredSinr
attr title "SINR measured at feedback computation, vector"
attr unit dB
vector 273 Highway.car[79].cellularNic.nrPhy servingCell:vector ETV
attr source servingCell
attr title "ID of the serving eNodeB for the UE, vector"
attr unit ""
vector 274 Highway.car[80].cellularNic.phy servingCell:vector ETV
attr source servingCell
attr title "ID of the serving eNodeB for the UE, vector"
attr unit ""
vector 275 Highway.car[80].cellularNic.nrChannelModel[0] measuredSinr:vector ETV
attr source measuredSinr
attr title "SINR measured at feedback computation, vector"
attr unit dB
vector 276 Highway.car[80].cellularNic.nrPhy servingCell:vector ETV
attr source servingCell
attr title "ID of the serving eNodeB for the UE, vector"
attr unit ""
vector 277 Highway.car[81].cellularNic.phy servingCell:vector ETV
attr source servingCell
attr title "ID of the serving eNodeB for the UE, vector"
attr unit ""
vector 278 Highway.car[81].cellularNic.nrChannelModel[0] measuredSinr:vector ETV
attr source measuredSinr
attr title "SINR measured at feedback computation, vector"
attr unit dB
vector 279 Highway.car[81].cellularNic.nrPhy servingCell:vector ETV
attr source servingCell
attr title "ID of the serving eNodeB for the UE, vector"
attr unit ""
vector 280 Highway.car[82].cellularNic.phy servingCell:vector ETV
attr source servingCell
attr title "ID of the serving eNodeB for the UE, vector"
attr unit ""
vector 281 Highway.car[82].cellularNic.nrChannelModel[0] measuredSinr:vector ETV
attr source measuredSinr
attr title "SINR measured at feedback computation, vector"
attr unit dB
vector 282 Highway.car[82].cellularNic.nrPhy servingCell:vector ETV
attr source servingCell
attr title "ID of the serving eNodeB for the UE, vector"
attr unit ""
vector 283 Highway.car[83].cellularNic.phy servingCell:vector ETV
attr source servingCell
attr title "ID of the serving eNodeB for the UE, vector"
attr unit ""
vector 284 Highway.car[83].cellularNic.nrChannelModel[0] measuredSinr:vector ETV
attr source measuredSinr
attr title "SINR measured at feedback computation, vector"
attr unit dB
vector 285 Highway.car[83].cellularNic.nrPhy servingCell:vector ETV
attr source servingCell
attr title "ID of the serving eNodeB for the UE, vector"
attr unit ""
vector 286 Highway.car[84].cellularNic.phy servingCell:vector ETV
attr source servingCell
attr title "ID of the serving eNodeB for the UE, vector"
attr unit ""
vector 287 Highway.car[84].cellularNic.nrChannelModel[0] measuredSinr:vector ETV
attr source measuredSinr
attr title "SINR measured at feedback computation, vector"
attr unit dB
vector 288 Highway.car[84].cellularNic.nrPhy servingCell:vector ETV
attr source servingCell
attr title "ID of the serving eNodeB for the UE, vector"
attr unit ""
vector 289 Highway.car[85].cellularNic.phy servingCell:vector ETV
attr source servingCell
attr title "ID of the serving eNodeB for the UE, vector"
attr unit ""
vector 290 Highway.car[85].cellularNic.nrChannelModel[0] measuredSinr:vector ETV
attr source measuredSinr
attr title "SINR measured at feedback computation, vector"
attr unit dB
vector 291 Highway.car[85].cellularNic.nrPhy servingCell:vector ETV
attr source servingCell
attr title "ID of the serving eNodeB for the UE, vector"
attr unit ""
vector 292 Highway.car[86].cellularNic.phy servingCell:vector ETV
attr source servingCell
attr title "ID of the serving eNodeB for the UE, vector"
attr unit ""
vector 293 Highway.car[86].cellularNic.nrChannelModel[0] measuredSinr:vector ETV
attr source measuredSinr
attr title "SINR measured at feedback computation, vector"
attr unit dB
vector 294 Highway.car[86].cellularNic.nrPhy servingCell:vector ETV
attr source servingCell
attr title "ID of the serving eNodeB for the UE, vector"
attr unit ""
vector 295 Highway.car[87].cellularNic.phy servingCell:vector ETV
attr source servingCell
attr title "ID of the serving eNodeB for the UE, vector"
attr unit ""
vector 296 Highway.car[87].cellularNic.nrChannelModel[0] measuredSinr:vector ETV
attr source measuredSinr
attr title "SINR measured at feedback computation, vector"
attr unit dB
vector 297 Highway.car[87].cellularNic.nrPhy servingCell:vector ETV
attr source servingCell
attr title "ID of the serving eNodeB for the UE, vector"
attr unit ""
vector 298 Highway.car[88].cellularNic.phy servingCell:vector ETV
attr source servingCell
attr title "ID of the serving eNodeB for the UE, vector"
attr unit ""
vector 299 Highway.car[88].cellularNic.nrChannelModel[0] measuredSinr:vector ETV
attr source measuredSinr
attr title "SINR measured at feedback computation, vector"
attr unit dB
vector 300 Highway.car[88].cellularNic.nrPhy servingCell:vector ETV
attr source servingCell
attr title "ID of the serving eNodeB for the UE, vector"
attr unit ""
vector 301 Highway.car[89].cellularNic.phy servingCell:vector ETV
attr source servingCell
attr title "ID of the serving eNodeB for the UE, vector"
attr unit ""
vector 302 Highway.car[89].cellularNic.nrChannelModel[0] measuredSinr:vector ETV
attr source measuredSinr
attr title "SINR measured at feedback computation, vector"
attr unit dB
vector 303 Highway.car[89].cellularNic.nrPhy servingCell:vector ETV
attr source servingCell
attr title "ID of the serving eNodeB for the UE, vector"
attr unit ""
vector 304 Highway.car[90].cellularNic.phy servingCell:vector ETV
attr source servingCell
attr title "ID of the serving eNodeB for the UE, vector"
attr unit ""
vector 305 Highway.car[90].cellularNic.nrChannelModel[0] measuredSinr:vector ETV
attr source measuredSinr
attr title "SINR measured at feedback computation, vector"
attr unit dB
vector 306 Highway.car[90].cellularNic.nrPhy servingCell:vector ETV
attr source servingCell
attr title "ID of the serving eNodeB for the UE, vector"
attr unit ""
vector 307 Highway.car[91].cellularNic.phy servingCell:vector ETV
attr source servingCell
attr title "ID of the serving eNodeB for the UE, vector"
attr unit ""
vector 308 Highway.car[91].cellularNic.nrChannelModel[0] measuredSinr:vector ETV
attr source measuredSinr
attr title "SINR measured at feedback computation, vector"
attr unit dB
vector 309 Highway.car[91].cellularNic.nrPhy servingCell:vector ETV
attr source servingCell
attr title "ID of the serving eNodeB for the UE, vector"
attr unit ""
vector 310 Highway.car[92].cellularNic.phy servingCell:vector ETV
attr source servingCell
attr title "ID of the serving eNodeB for the UE, vector"
attr unit ""
vector 311 Highway.car[92].cellularNic.nrChannelModel[0] measuredSinr:vector ETV
attr source measuredSinr
attr title "SINR measured at feedback computation, vector"
attr unit dB
vector 312 Highway.car[92].cellularNic.nrPhy servingCell:vector ETV
attr source servingCell
attr title "ID of the serving eNodeB for the UE, vector"
attr unit ""
vector 313 Highway.car[93].cellularNic.phy servingCell:vector ETV
attr source servingCell
attr title "ID of the serving eNodeB for the UE, vector"
attr unit ""
vector 314 Highway.car[93].cellularNic.nrChannelModel[0] measuredSinr:vector ETV
attr source measuredSinr
attr title "SINR measured at feedback computation, vector"
attr unit dB
vector 315 Highway.car[93].cellularNic.nrPhy servingCell:vector ETV
attr source servingCell
attr title "ID of the serving eNodeB for the UE, vector"
attr unit ""
vector 316 Highway.car[94].cellularNic.phy servingCell:vector ETV
attr source servingCell
attr title "ID of the serving eNodeB for the UE, vector"
attr unit ""
vector 317 Highway.car[94].cellularNic.nrChannelModel[0] measuredSinr:vector ETV
attr source measuredSinr
attr title "SINR measured at feedback computation, vector"
attr unit dB
vector 318 Highway.car[94].cellularNic.nrPhy servingCell:vector ETV
attr source servingCell
attr title "ID of the serving eNodeB for the UE, vector"
attr unit ""
vector 319 Highway.car[95].cellularNic.phy servingCell:vector ETV
attr source servingCell
attr title "ID of the serving eNodeB for the UE, vector"
attr unit ""
vector 320 Highway.car[95].cellularNic.nrChannelModel[0] measuredSinr:vector ETV
attr source measuredSinr
attr title "SINR measured at feedback computation, vector"
attr unit dB
vector 321 Highway.car[95].cellularNic.nrPhy servingCell:vector ETV
attr source servingCell
attr title "ID of the serving eNodeB for the UE, vector"
attr unit ""
vector 322 Highway.car[96].cellularNic.phy servingCell:vector ETV
attr source servingCell
attr title "ID of the serving eNodeB for the UE, vector"
attr unit ""
vector 323 Highway.car[96].cellularNic.nrChannelModel[0] measuredSinr:vector ETV
attr source measuredSinr
attr title "SINR measured at feedback computation, vector"
attr unit dB
vector 324 Highway.car[96].cellularNic.nrPhy servingCell:vector ETV
attr source servingCell
attr title "ID of the serving eNodeB for the UE, vector"
attr unit ""
vector 325 Highway.car[97].cellularNic.phy servingCell:vector ETV
attr source servingCell
attr title "ID of the serving eNodeB for the UE, vector"
attr unit ""
vector 326 Highway.car[97].cellularNic.nrChannelModel[0] measuredSinr:vector ETV
attr source measuredSinr
attr title "SINR measured at feedback computation, vector"
attr unit dB
vector 327 Highway.car[97].cellularNic.nrPhy servingCell:vector ETV
attr source servingCell
attr title "ID of the serving eNodeB for the UE, vector"
attr unit ""
vector 328 Highway.car[98].cellularNic.phy servingCell:vector ETV
attr source servingCell
attr title "ID of the serving eNodeB for the UE, vector"
attr unit ""
vector 329 Highway.car[98].cellularNic.nrChannelModel[0] measuredSinr:vector ETV
attr source measuredSinr
attr title "SINR measured at feedback computation, vector"
attr unit dB
vector 330 Highway.car[98].cellularNic.nrPhy servingCell:vector ETV
attr source servingCell
attr title "ID of the serving eNodeB for the UE, vector"
attr unit ""
vector 331 Highway.car[99].cellularNic.phy servingCell:vector ETV
attr source servingCell
attr title "ID of the serving eNodeB for the UE, vector"
attr unit ""
vector 332 Highway.car[99].cellularNic.nrChannelModel[0] measuredSinr:vector ETV
attr source measuredSinr
attr title "SINR measured at feedback computation, vector"
attr unit dB
vector 333 Highway.car[99].cellularNic.nrPhy servingCell:vector ETV
attr source servingCell
attr title "ID of the serving eNodeB for the UE, vector"
attr unit ""
vector 334 Highway.car[100].cellularNic.phy servingCell:vector ETV
attr source servingCell
attr title "ID of the serving eNodeB for the UE, vector"
attr unit ""
vector 335 Highway.car[100].cellularNic.nrChannelModel[0] measuredSinr:vector ETV
attr source measuredSinr
attr title "SINR measured at feedback computation, vector"
attr unit dB
vector 336 Highway.car[100].cellularNic.nrPhy servingCell:vector ETV
attr source servingCell
attr title "ID of the serving eNodeB for the UE, vector"
attr unit ""
vector 337 Highway.car[101].cellularNic.phy servingCell:vector ETV
attr source servingCell
attr title "ID of the serving eNodeB for the UE, vector"
attr unit ""
vector 338 Highway.car[101].cellularNic.nrChannelModel[0] measuredSinr:vector ETV
attr source measuredSinr
attr title "SINR measured at feedback computation, vector"
attr unit dB
vector 339 Highway.car[101].cellularNic.nrPhy servingCell:vector ETV
attr source servingCell
attr title "ID of the serving eNodeB for the UE, vector"
attr unit ""
vector 340 Highway.car[102].cellularNic.phy servingCell:vector ETV
attr source servingCell
attr title "ID of the serving eNodeB for the UE, vector"
attr unit ""
vector 341 Highway.car[102].cellularNic.nrChannelModel[0] measuredSinr:vector ETV
attr source measuredSinr
attr title "SINR measured at feedback computation, vector"
attr unit dB
vector 342 Highway.car[102].cellularNic.nrPhy servingCell:vector ETV
attr source servingCell
attr title "ID of the serving eNodeB for the UE, vector"
attr unit ""
vector 343 Highway.car[103].cellularNic.phy servingCell:vector ETV
attr source servingCell
attr title "ID of the serving eNodeB for the UE, vector"
attr unit ""
vector 344 Highway.car[103].cellularNic.nrChannelModel[0] measuredSinr:vector ETV
attr source measuredSinr
attr title "SINR measured at feedback computation, vector"
attr unit dB
vector 345 Highway.car[103].cellularNic.nrPhy servingCell:vector ETV
attr source servingCell
attr title "ID of the serving eNodeB for the UE, vector"
attr unit ""
vector 346 Highway.car[104].cellularNic.phy servingCell:vector ETV
attr source servingCell
attr title "ID of the serving eNodeB for the UE, vector"
attr unit ""
vector 347 Highway.car[104].cellularNic.nrChannelModel[0] measuredSinr:vector ETV
attr source measuredSinr
attr title "SINR measured at feedback computation, vector"
attr unit dB
vector 348 Highway.car[104].cellularNic.nrPhy servingCell:vector ETV
attr source servingCell
attr title "ID of the serving eNodeB for the UE, vector"
attr unit ""
vector 349 Highway.car[105].cellularNic.phy servingCell:vector ETV
attr source servingCell
attr title "ID of the serving eNodeB for the UE, vector"
attr unit ""
vector 350 Highway.car[105].cellularNic.nrChannelModel[0] measuredSinr:vector ETV
attr source measuredSinr
attr title "SINR measured at feedback computation, vector"
attr unit dB
vector 351 Highway.car[105].cellularNic.nrPhy servingCell:vector ETV
attr source servingCell
attr title "ID of the serving eNodeB for the UE, vector"
attr unit ""
vector 352 Highway.car[106].cellularNic.phy servingCell:vector ETV
attr source servingCell
attr title "ID of the serving eNodeB for the UE, vector"
attr unit ""
vector 353 Highway.car[106].cellularNic.nrChannelModel[0] measuredSinr:vector ETV
attr source measuredSinr
attr title "SINR measured at feedback computation, vector"
attr unit dB
vector 354 Highway.car[106].cellularNic.nrPhy servingCell:vector ETV
attr source servingCell
attr title "ID of the serving eNodeB for the UE, vector"
attr unit ""
vector 355 Highway.car[107].cellularNic.phy servingCell:vector ETV
attr source servingCell
attr title "ID of the serving eNodeB for the UE, vector"
attr unit ""
vector 356 Highway.car[107].cellularNic.nrChannelModel[0] measuredSinr:vector ETV
attr source measuredSinr
attr title "SINR measured at feedback computation, vector"
attr unit dB
vector 357 Highway.car[107].cellularNic.nrPhy servingCell:vector ETV
attr source servingCell
attr title "ID of the serving eNodeB for the UE, vector"
attr unit ""
vector 358 Highway.car[108].cellularNic.phy servingCell:vector ETV
attr source servingCell
attr title "ID of the serving eNodeB for the UE, vector"
attr unit ""
vector 359 Highway.car[108].cellularNic.nrChannelModel[0] measuredSinr:vector ETV
attr source measuredSinr
attr title "SINR measured at feedback computation, vector"
attr unit dB
vector 360 Highway.car[108].cellularNic.nrPhy servingCell:vector ETV
attr source servingCell
attr title "ID of the serving eNodeB for the UE, vector"
attr unit ""
167	62896 1063685 763 533242 0.102 2.22 32768 102.03396320577 153.22988844883 3762151.8055099 435150722.91023
168	1126581 608587 764 533243 0.102 2.22 32768 1 1 32768 32768
vector 361 Highway.car[109].cellularNic.phy servingCell:vector ETV
attr source servingCell
attr title "ID of the serving eNodeB for the UE, vector"
attr unit ""
vector 362 Highway.car[109].cellularNic.nrChannelModel[0] measuredSinr:vector ETV
attr source measuredSinr
attr title "SINR measured at feedback computation, vector"
attr unit dB
vector 363 Highway.car[109].cellularNic.nrPhy servingCell:vector ETV
attr source servingCell
attr title "ID of the serving eNodeB for the UE, vector"
attr unit ""
vector 364 Highway.car[110].cellularNic.phy servingCell:vector ETV
attr source servingCell
attr title "ID of the serving eNodeB for the UE, vector"
attr unit ""
vector 365 Highway.car[110].cellularNic.nrChannelModel[0] measuredSinr:vector ETV
attr source measuredSinr
attr title "SINR measured at feedback computation, vector"
attr unit dB
vector 366 Highway.car[110].cellularNic.nrPhy servingCell:vector ETV
attr source servingCell
attr title "ID of the serving eNodeB for the UE, vector"
attr unit ""
vector 367 Highway.car[111].cellularNic.phy servingCell:vector ETV
attr source servingCell
attr title "ID of the serving eNodeB for the UE, vector"
attr unit ""
vector 368 Highway.car[111].cellularNic.nrChannelModel[0] measuredSinr:vector ETV
attr source measuredSinr
attr title "SINR measured at feedback computation, vector"
attr unit dB
vector 369 Highway.car[111].cellularNic.nrPhy servingCell:vector ETV
attr source servingCell
attr title "ID of the serving eNodeB for the UE, vector"
attr unit ""
vector 370 Highway.car[112].cellularNic.phy servingCell:vector ETV
attr source servingCell
attr title "ID of the serving eNodeB for the UE, vector"
attr unit ""
vector 371 Highway.car[112].cellularNic.nrChannelModel[0] measuredSinr:vector ETV
attr source measuredSinr
attr title "SINR measured at feedback computation, vector"
attr unit dB
vector 372 Highway.car[112].cellularNic.nrPhy servingCell:vector ETV
attr source servingCell
attr title "ID of the serving eNodeB for the UE, vector"
attr unit ""
vector 373 Highway.car[113].cellularNic.phy servingCell:vector ETV
attr source servingCell
attr title "ID of the serving eNodeB for the UE, vector"
attr unit ""
vector 374 Highway.car[113].cellularNic.nrChannelModel[0] measuredSinr:vector ETV
attr source measuredSinr
attr title "SINR measured at feedback computation, vector"
attr unit dB
vector 375 Highway.car[113].cellularNic.nrPhy servingCell:vector ETV
attr source servingCell
attr title "ID of the serving eNodeB for the UE, vector"
attr unit ""
vector 376 Highway.car[114].cellularNic.phy servingCell:vector ETV
attr source servingCell
attr title "ID of the serving eNodeB for the UE, vector"
attr unit ""
vector 377 Highway.car[114].cellularNic.nrChannelModel[0] measuredSinr:vector ETV
attr source measuredSinr
attr title "SINR measured at feedback computation, vector"
attr unit dB
vector 378 Highway.car[114].cellularNic.nrPhy servingCell:vector ETV
attr source servingCell
attr title "ID of the serving eNodeB for the UE, vector"
attr unit ""
vector 379 Highway.car[115].cellularNic.phy servingCell:vector ETV
attr source servingCell
attr title "ID of the serving eNodeB for the UE, vector"
attr unit ""
vector 380 Highway.car[115].cellularNic.nrChannelModel[0] measuredSinr:vector ETV
attr source measuredSinr
attr title "SINR measured at feedback computation, vector"
attr unit dB
vector 381 Highway.car[115].cellularNic.nrPhy servingCell:vector ETV
attr source servingCell
attr title "ID of the serving eNodeB for the UE, vector"
attr unit ""
vector 382 Highway.car[116].cellularNic.phy servingCell:vector ETV
attr source servingCell
attr title "ID of the serving eNodeB for the UE, vector"
attr unit ""
vector 383 Highway.car[116].cellularNic.nrChannelModel[0] measuredSinr:vector ETV
attr source measuredSinr
attr title "SINR measured at feedback computation, vector"
attr unit dB
vector 384 Highway.car[116].cellularNic.nrPhy servingCell:vector ETV
attr source servingCell
attr title "ID of the serving eNodeB for the UE, vector"
attr unit ""
vector 385 Highway.car[117].cellularNic.phy servingCell:vector ETV
attr source servingCell
attr title "ID of the serving eNodeB for the UE, vector"
attr unit ""
vector 386 Highway.car[117].cellularNic.nrChannelModel[0] measuredSinr:vector ETV
attr source measuredSinr
attr title "SINR measured at feedback computation, vector"
attr unit dB
vector 387 Highway.car[117].cellularNic.nrPhy servingCell:vector ETV
attr source servingCell
attr title "ID of the serving eNodeB for the UE, vector"
attr unit ""
vector 388 Highway.car[118].cellularNic.phy servingCell:vector ETV
attr source servingCell
attr title "ID of the serving eNodeB for the UE, vector"
attr unit ""
vector 389 Highway.car[118].cellularNic.nrChannelModel[0] measured146	42330264 1169044 11706815 12238997 40.53 42.318 32768 102.28851949862 148.89451942932 3804651.7059626 445857371.07922
147	43499308 713520 11706816 12238998 40.53 42.318 32768 1 1 32768 32768
146	44212828 1169112 12238999 12770670 42.318 44.104 32768 102.29402056979 153.21822420026 3809352.6078926 447149331.13859
147	45381940 713556 12239000 12770671 42.318 44.104 32768 1 1 32768 32768
146	46095496 1169049 12770672 13302797 44.104 45.892 32768 102.48435163252 152.3252704693 3812060.779576 447838146.41587
147	47264545 713636 12770673 13302798 44.104 45.892 32768 1 1 32768 32768
146	47978181 1168418 13302799 13834991 45.892 47.68 32768 102.03556108658 149.35055233061 3818688.5708139 449645540.02903
147	49146599 713580 13302800 13834992 45.892 47.68 32768 1 1 32768 32768
146	49860179 1168988 13834993 14366650 47.68 49.466 32768 102.0914439561 153.22030054298 3822042.3622472 450585209.63524
147	51029167 713526 13834994 14366651 47.68 49.466 32768 1 1 32768 32768
146	51742693 1168545 14366652 14898856 49.466 51.254 32768 102.06824896887 153.23025873396 3819224.5257723 449897606.77446
147	52911238 713498 14366653 14898857 49.466 51.254 32768 1 1 32768 32768
146	53624736 1168954 14898858 15430537 51.254 53.04 32768 102.03575064193 148.85483844529 3810332.8984267 447572727.00669
147	54793690 713564 14898859 15430538 51.254 53.04 32768 1 1 32768 32768
146	55507254 1168503 15430539 15962654 53.04 54.828 32768 102.03767279472 153.22929234771 3807542.3697217 447011511.33745
147	56675757 713598 15430540 15962655 53.04 54.828 32768 1 1 32768 32768
146	57389355 1169794 15962656 16494855 54.828 56.616 32768 102.03261185298 152.51580035684 3802224.4546406 445735147.74328
147	58559149 713556 15962657 16494856 54.828 56.616 32768 1 1 32768 32768
146	59272705 1169431 16494857 17027053 56.616 58.404 32768 102.03666561423 142.35332839093 3792289.5715323 443185110.21506
147	60442136 713524 16494858 17027054 56.616 58.404 32768 1 1 32768 32768
146	61155660 1169545 17027055 17558725 58.404 60.19 32768 102.09845956241 148.87892269792 3788215.5703489 442343311.22025
147	62325205 713524 17027056 17558726 58.404 60.19 32768 1 1 32768 32768
146	63038729 1169799 17559257 18090831 60.192 61.978 32768 102.03432162092 145.80393272532 3785288.0911479 441654822.05377
147	64208528 713664 17559258 18090832 60.192 61.978 32768 1 1 32768 32768
146	64922192 1169363 18090833 18623011 61.978 63.766 32768 102.05971380395 153.2165500417 3787044.5799589 442196280.34576
147	66091555 713498 18090834 18623012 61.978 63.766 32768 1 1 32768 32768
28	66805053 682430 9396716 19149831 32.769 65.536 32768 0 0 0 0
29	67487483 682430 9396716 19149831 32.769 65.536 32768 0 0 0 0
30	68169913 682430 9396717 19149832 32.769 65.536 32768 0 0 0 0
31	68852343 682430 9396717 19149832 32.769 65.536 32768 0 0 0 0
146	69534773 1169387 18623013 19154643 63.766 65.552 32768 102.03352105975 148.33003129967 3787205.6053683 442068141.4899
147	70704160 713556 18623014 19154644 63.766 65.552 32768 1 1 32768 32768
146	71417716 1169548 19154645 19686809 65.552 67.34 32768 101.78377707206 142.45345811579 3791105.930039 442975584.97717
147	72587264 713544 19154646 19686810 65.552 67.34 32768 1 1 32768 32768
146	73300808 1168993 19686811 20218470 67.34 69.126 32768 101.78533395868 142.46206194911 3796689.2091493 444346649.17634
147	74469801 713506 19686812 20218471 67.34 69.126 32768 1 1 32768 32768
146	75183307 1169103 20218472 20750587 69.126 70.914 32768 101.9249651887 153.23036995978 3807827.0013892 447349545.5988
147	76352410 713636 20218473 20750588 69.126 70.914 32768 1 1 32768 32768
146	77066046 1169417 20750589 21282751 70.914 72.702 32768 102.0367143645 153.13191078811 3813118.0436595 448715735.24269
147	78235463 713498 20750590 21282752 70.914 72.702 32768 1 1 32768 32768
146	78948961 1169523 21282753 21814931 72.702 74.49 32768 102.0490854101 145.03494417457 3809684.9730322 447600210.66567
147	80118484 713626 21282754 21814932 72.702 74.49 32768 1 1 32768 32768
146	80832110 1169142 21814933 22347126 74.49 76.278 32768 102.907321887 145.95027174157 3808672.8497112 447298522.77386
147	82001252 713508 21814934 22347127 74.49 76.278 32768 1 1 32768 32768
146	82714760 1168837 22347128 22878783 76.278 78.064 32768 102.79363871618 153.22302300064 3816103.8317152 449300860.90147
147	83883597 713500 22347129 22878784 76.278 78.064 32768 1 1 32768 32768
146	84597097 1168955 22878785 23410927 78.064 79.852 32768 102.03300578438 148.38101826345 3823841.7455972 451079530.05729
147	85766052 713636 22878786 23410928 78.064 79.852 32768 1 1 32768 32768
146	86479688 1169077 23410929 23942598 79.852 81.638 32768 102.05051535515 153.20686896323 3835224.5960044 453873923.57394
147	87648765 713526 23410930 23942599 79.852 81.638 32768 1 1 32768 32768
146	88362291 1169332 23942600 24474810 81.638 83.426 32768 102.7297083162 152.99404615173 3844525.495073 456066252.79773
147	89531623 713584 23942601 24474811 81.638 83.426 32768 1 1 32768 32768
146	90245207 1169039 24474812 25006527 83.426 85.212 32768 102.81722159266 153.2147001814 3854353.9092067 458535081.45533
147	91414246 713494 24474813 25006528 83.426 85.212 32768 1 1 32768 32768
146	92127740 1169479 25006529 25538654 85.212 87 32768 101.84491047569 151.77068550317 3861819.8236299 460434951.5512
147	93297219 713564 25006530 25538655 85.212 87 32768 1 1 32768 32768
146	94010783 1168966 25538656 26070847 87 88.788 32768 101.78163900907 145.43827759153 3862444.256681 460450804.94313
147	95179749 713654 25538657 26070848 87 88.788 32768 1 1 32768 32768
146	95893403 1168899 26070849 26603065 88.788 90.576 32768 102.40401362776 147.14443606946 3862951.2645687 460492208.94006
147	97062302 713500 26070850 26603066 88.788 90.576 32768 1 1 32768 32768
146	97775802 1169140 26603067 27135258 90.576 92.364 32768 101.78343410377 148.88632030701 3868041.4155763 461787725.86375
147	98944942 713584 26603068 27135259 90.576 92.364 32768 1 1 32768 32768
146	99658526 1168661 27135260 27666951 92.364 94.15 32768 101.78587911629 148.89535531156 3873112.9648682 462877523.72376
147	100827187 713502 27135261 27666952 92.364 94.15 32768 1 1 32768 32768
146	101540689 1168597 27666953 28199099 94.15 95.938 32768 101.7935523083 142.4642647067 3879410.2773292 464203850.67259
147	102709286 713660 27666954 28199100 94.15 95.938 32768 1 1 32768 32768
146	103422946 1168854 28199101 28730782 95.938 97.724 32768 102.53936058243 153.22443342438 3892657.4251144 467505930.57604
147	104591800 713494 28199102 28730783 95.938 97.724 32768 1 1 32768 32768
28	105305294 684457 19150167 28903403 65.537 98.304 32768 0 0 0 0
29	105989751 684457 19150167 28903403 65.537 98.304 32768 0 0 0 0
30	106674208 684457 19150168 28903404 65.537 98.304 32768 0 0 0 0
31	107358665 684457 19150168 28903404 65.537 98.304 32768 0 0 0 0
146	108043122 1168977 28730784 29263007 97.724 99.512 32768 103.00480303556 152.95120885195 3900475.8084558 469347367.03363
147	109212099 713500 28730785 29263008 97.724 99.512 32768 1 1 32768 32768
146	109925599 1192446 29263009 29794734 99.512 101.298 32768 102.81025573198 151.62836585322 3902057.8280335 469511200.32541
147	111118045 737478 29263010 29794735 99.512 101.298 32768 1 1 32768 32768
146	111855523 1200843 29794736 30326957 101.298 103.086 32768 102.91624231493 153.22642997084 3907367.525131 470863040.72189
147	113056366 746264 29794737 30326958 101.298 103.086 32768 1 1 32768 32768
146	113802630 1201283 30326959 30859114 103.086 104.874 32768 102.80987711564 147.04823877579 3911693.0009275 471940602.68992
147	115003913 746408 30326960 30859115 103.086 104.874 32768 1 1 32768 32768
146	115750321 1201413 30859116 31391352 104.874 106.662 32768 103.07777787593 153.22953085562 3919177.1487109 474033168.25515
147	116951734 746262 30859117 31391353 104.874 106.662 32768 1 1 32768 32768
146	117697996 1201770 31391354 31923590 106.662 108.45 32768 102.80993013447 153.22968585676 3922477.9576058 474842357.22729
147	118899766 746318 31391355 31923591 106.662 108.45 32768 1 1 32768 32768
146	119646084 1201298 31923592 32455303 108.45 110.236 32768 102.80993013447 144.96810550864 3922875.8618257 474700472.16383
147	120847382 746328 31923593 32455304 108.45 110.236 32768 1 1 32768 32768
146	121593710 1201799 32455305 32987328 110.236 112.024 32768 103.31967904641 144.45613094987 3931286.1725078 476723361.5605
147	122795509 746264 32455306 32987329 110.236 112.024 32768 1 1 32768 32768
146	123541773 1201664 32987330 33518524 112.024 113.81 32768 103.07769534033 153.15109735623 3946218.9489898 480522946.19929
147	124743437 746410 32987331 33518525 112.024 113.81 32768 1 1 32768 32768
146	125489847 1201367 33518526 34050353 113.81 115.598 32768 103.16826233496 153.23014921266 3955669.2973407 482740062.3749
147	126691214 746316 33518527 34050354 113.81 115.598 32768 1 1 32768 32768
146	127437530 1201788 34050355 34581687 115.598 117.384 32768 103.27917371397 148.89562133654 3963125.0035656 484571942.39624
147	128639318 746296 34050356 34581688 115.598 117.384 32768 1 1 32768 32768
146	129385614 1201658 34582191 35113523 117.386 119.172 32768 103.07700940632 146.76666727003 3961677.0177262 484128724.49896
147	130587272 746322 34582192 35113524 117.386 119.172 32768 1 1 32768 32768
146	131333594 1201979 35113525 35645255 119.172 120.96 32768 103.22049609156 148.89344430185 3956052.7681931 482716952.85378
147	132535573 746344 35113526 35645256 119.172 120.96 32768 1 1 32768 32768
146	133281917 1202248 35645257 36177093 120.96 122.748 32768 102.56040428413 146.08852388474 3949297.584421 481008913.53109
147	134484165 746354 35645258 36177094 120.96 122.748 32768 1 1 32768 32768
146	135230519 1201887 36177095 36708933 122.748 124.536 32768 102.54675744353 153.22978522065 3948941.8187953 481047811.33432
147	136432406 746264 36177096 36708934 122.748 124.536 32768 1 1 32768 32768
146	137178670 1201698 36708935 37240237 124.536 126.322 32768 102.9125050967 149.70447139862 3946980.6290465 480457029.39081
147	138380368 746296 36708936 37240238 124.536 126.322 32768 1 1 32768 32768
146	139126664 1201404 37240239 37772075 126.322 128.11 32768 102.81217881993 142.4642647067 3946576.697552 480302796.78721
147	140328068 746338 37240240 37772076 126.322 128.11 32768 1 1 32768 32768
146	141074406 1201540 37772077 38303276 128.11 129.896 32768 102.56004904553 148.65486103544 3950150.1311154 481279211.45333
147	142275946 746416 37772078 38303277 128.11 129.896 32768 1 1 32768 32768
28	143022362 715531 28903765 38653110 98.305 131.072 32768 0 0 0 0
29	143737893 715531 28903765 38653110 98.305 131.072 32768 0 0 0 0
30	144453424 715531 28903766 38653111 98.305 131.072 32768 0 0 0 0
31	145168955 715531 28903766 38653111 98.305 131.072 32768 0 0 0 0
146	145884486 1201288 38303810 38835114 129.898 131.684 32768 102.54991702211 148.89590861772 3954215.8833732 482367861.0713
147	147085774 746322 38303811 38835115 129.898 131.684 32768 1 1 32768 32768
146	147832096 1200619 38835116 39366944 131.684 133.472 32768 103.05916473983 148.89225683441 3959423.3112588 483775582.10303
147	149032715 746264 38835117 39366945 131.684 133.472 32768 1 1 32768 32768
146	149778979 1201202 39366946 39898274 133.472 135.258 32768 102.8155831924 153.22918381261 3963353.4971501 484868885.73647
147	150980181 746322 39366947 39898275 133.472 135.258 32768 1 1 32768 32768
146	151726503 1201034 39898276 40430108 135.258 137.046 32768 102.81210561345 151.63576425089 3956531.4960071 482882542.99447
147	152927537 746324 39898277 40430109 135.258 137.046 32768 1 1 32768 32768
146	153673861 1200648 40430110 40961842 137.046 138.834 32768 103.14386281102 142.48431202023 3951500.2398665 481462271.88377
147	154874509 746348 40430111 40961843 137.046 138.834 32768 1 1 32768 32768
146	155620857 1201707 40961844 41493676 138.834 140.622 32768 103.16519765773 142.51639867422 3950133.316951 481071625.53855
147	156822564 746322 40961845 41493677 138.834 140.622 32768 1 1 32768 32768
146	157568886 1201659 41493678 42024980 140.622 142.408 32768 103.07720236427 148.16908379249 3953151.5480635 481845837.58132
147	158770545 746320 41493679 42024981 140.622 142.408 32768 1 1 32768 32768
[...]
250	342175516 16 30011 30011 0.3 0.3 1 0 0 0 0
251	342175532 60 30011 30011 0.3 0.3 2 99.377864559214 119.74701427591 219.12487883512 24215.307392343
252	342175592 16 30011 30011 0.3 0.3 1 1 1 1 1
253	342175608 16 30011 30011 0.3 0.3 1 0 0 0 0
254	342175624 59 30011 30011 0.3 0.3 2 90.279395759433 104.9501002445 195.22949600393 19164.892840019
255	342175683 16 30011 30011 0.3 0.3 1 1 1 1 1
256	342175699 16 30011 30011 0.3 0.3 1 0 0 0 0
257	342175715 60 30011 30011 0.3 0.3 2 88.966851138427 106.17971383291 195.14656497133 19189.232231125
258	342175775 16 30011 30011 0.3 0.3 1 1 1 1 1
259	342175791 16 30011 30011 0.3 0.3 1 0 0 0 0
260	342175807 60 30011 30011 0.3 0.3 2 93.064506764623 117.50236175038 210.566868515 22467.80743626
261	342175867 16 30011 30011 0.3 0.3 1 1 1 1 1
262	342175883 16 30011 30011 0.3 0.3 1 0 0 0 0
263	342175899 60 30011 30011 0.3 0.3 2 97.217647267678 116.34781127283 213.56545854051 22988.08412824
264	342175959 16 30011 30011 0.3 0.3 1 1 1 1 1
265	342175975 16 50895 50895 0.4 0.4 1 0 0 0 0
266	342175991 60 50895 50895 0.4 0.4 2 92.154114403283 116.72340101061 208.8775154139 22116.733144938
267	342176051 16 50895 50895 0.4 0.4 1 1 1 1 1
268	342176067 16 50895 50895 0.4 0.4 1 0 0 0 0
269	342176083 59 50895 50895 0.4 0.4 2 90.860366891115 104.6698513482 195.53021823932 19211.384052843
270	342176142 16 50895 50895 0.4 0.4 1 1 1 1 1
271	342176158 16 50895 50895 0.4 0.4 1 0 0 0 0
272	342176174 60 50895 50895 0.4 0.4 2 91.276376479958 104.19216313271 195.46853961267 19187.383761584
273	342176234 16 50895 50895 0.4 0.4 1 1 1 1 1
274	342176250 16 50895 50895 0.4 0.4 1 0 0 0 0
275	342176266 60 50895 50895 0.4 0.4 2 90.299359556193 104.94748881532 195.24684837151 19167.9497449
276	342176326 16 50895 50895 0.4 0.4 1 1 1 1 1
277	342176342 16 94917 94917 0.6 0.6 1 0 0 0 0
278	342176358 59 94917 94917 0.6 0.6 2 93.262824234071 117.8003109932 211.06313522727 22574.867654209
279	342176417 16 94917 94917 0.6 0.6 1 1 1 1 1
280	342176433 16 94917 94917 0.6 0.6 1 0 0 0 0
281	342176449 60 94917 94917 0.6 0.6 2 87.994052918623 103.22857977133 191.22263268995 18399.093030651
282	342176509 16 94917 94917 0.6 0.6 1 1 1 1 1
283	342176525 16 94917 94917 0.6 0.6 1 0 0 0 0
284	342176541 59 94917 94917 0.6 0.6 2 98.21341728546 122.69151210427 220.90492938973 24699.082477319
285	342176600 16 94917 94917 0.6 0.6 1 1 1 1 1
286	342176616 16 94917 94917 0.6 0.6 1 0 0 0 0
287	342176632 60 94917 94917 0.6 0.6 2 95.000537690349 124.07767171721 219.07820940756 24420.370780218
288	342176692 16 94917 94917 0.6 0.6 1 1 1 1 1
289	342176708 17 117957 117957 0.7 0.7 1 0 0 0 0
290	342176725 62 117957 117957 0.7 0.7 2 90.956615592241 112.23833340485 203.19494899709 20870.549405494
291	342176787 17 117957 117957 0.7 0.7 1 1 1 1 1
292	342176804 17 117957 117957 0.7 0.7 1 0 0 0 0
293	342176821 62 117957 117957 0.7 0.7 2 94.956389532526 132.16319304135 227.11958257388 26483.825507939
294	342176883 17 117957 117957 0.7 0.7 1 1 1 1 1
295	342176900 17 117957 117957 0.7 0.7 1 0 0 0 0
296	342176917 62 117957 117957 0.7 0.7 2 92.440441635171 117.73045462459 210.17089625976 22405.695195819
297	342176979 17 117957 117957 0.7 0.7 1 1 1 1 1
298	342176996 17 141865 141865 0.8 0.8 1 0 0 0 0
299	342177013 62 141865 141865 0.8 0.8 2 92.446534522777 114.21306224738 206.65959677016 21590.985333196
300	342177075 17 141865 141865 0.8 0.8 1 1 1 1 1
301	342177092 17 141865 141865 0.8 0.8 1 0 0 0 0
302	342177109 62 141865 141865 0.8 0.8 2 96.809439515467 152.17636062937 248.98580014483 32529.712313698
303	342177171 17 141865 141865 0.8 0.8 1 1 1 1 1
304	342177188 17 141865 141865 0.8 0.8 1 0 0 0 0
305	342177205 62 141865 141865 0.8 0.8 2 89.494322020881 105.66847254437 195.16279456525 19175.059763838
306	342177267 17 141865 141865 0.8 0.8 1 1 1 1 1
307	342177284 17 141865 141865 0.8 0.8 1 0 0 0 0
308	342177301 62 141865 141865 0.8 0.8 2 100.35169566931 123.58575957287 223.93745524218 25343.902792909
309	342177363 17 141865 141865 0.8 0.8 1 1 1 1 1
310	342177380 17 166775 166775 0.9 0.9 1 0 0 0 0
311	342177397 62 166775 166775 0.9 0.9 2 89.698412265178 105.90189713219 195.60030939737 19261.01697909
312	342177459 17 166775 166775 0.9 0.9 1 1 1 1 1
313	342177476 17 166775 166775 0.9 0.9 1 0 0 0 0
314	342177493 62 166775 166775 0.9 0.9 2 98.538979994288 123.26133032562 221.80031031991 24903.286131956
315	342177555 17 166775 166775 0.9 0.9 1 1 1 1 1
316	342177572 15 192219 192219 1 1 1 0 0 0 0
317	342177587 58 192219 192219 1 1 2 92.771865829869 106.05980493907 198.83167076894 19855.301313269
318	342177645 15 192219 192219 1 1 1 1 1 1 1
319	342177660 17 243773 243773 1.2 1.2 1 0 0 0 0
320	342177677 62 243773 243773 1.2 1.2 2 91.765054029775 113.32553559084 205.09058962061 21263.502158038
321	342177739 17 243773 243773 1.2 1.2 1 1 1 1 1
322	342177756 17 243773 243773 1.2 1.2 1 0 0 0 0
323	342177773 62 243773 243773 1.2 1.2 2 87.973273467535 102.74885565008 190.72212911761 18296.624181994
324	342177835 17 243773 243773 1.2 1.2 1 1 1 1 1
325	342177852 17 243773 243773 1.2 1.2 1 0 0 0 0
326	342177869 62 243773 243773 1.2 1.2 2 89.562505623159 105.75026477276 195.31277039592 19204.560913008
327	342177931 17 243773 243773 1.2 1.2 1 1 1 1 1
328	342177948 17 243773 243773 1.2 1.2 1 0 0 0 0
329	342177965 62 243773 243773 1.2 1.2 2 90.419581426707 110.32313458326 200.74271600997 20346.894729658
330	342178027 17 243773 243773 1.2 1.2 1 1 1 1 1
331	342178044 17 297391 297391 1.4 1.4 1 0 0 0 0
332	342178061 62 297391 297391 1.4 1.4 2 91.704602130373 113.04980071948 204.75440284985 21189.991494603
333	342178123 17 297391 297391 1.4 1.4 1 1 1 1 1
334	342178140 17 297391 297391 1.4 1.4 1 0 0 0 0
335	342178157 62 297391 297391 1.4 1.4 2 94.586550173717 112.27539923876 206.86194941248 21552.380747989
336	342178219 17 297391 297391 1.4 1.4 1 1 1 1 1
337	342178236 17 297391 297391 1.4 1.4 1 0 0 0 0
338	342178253 62 297391 297391 1.4 1.4 2 87.617911225587 102.12187957417 189.73979079976 18105.776655296
339	342178315 17 297391 297391 1.4 1.4 1 1 1 1 1
340	342178332 17 352551 352551 1.6 1.6 1 0 0 0 0
341	342178349 62 352551 352551 1.6 1.6 2 91.862031427935 105.55348695218 197.41551838012 19580.171425832
342	342178411 17 352551 352551 1.6 1.6 1 1 1 1 1
343	342178428 17 380457 380457 1.7 1.7 1 0 0 0 0
344	342178445 62 380457 380457 1.7 1.7 2 92.811597970368 106.14602290369 198.95762087406 19880.970896084
345	342178507 17 380457 380457 1.7 1.7 1 1 1 1 1
346	342178524 17 380457 380457 1.7 1.7 1 0 0 0 0
347	342178541 62 380457 380457 1.7 1.7 2 92.332209004218 113.75669797518 206.0889069794 21465.823153815
348	342178603 17 380457 380457 1.7 1.7 1 1 1 1 1
349	342178620 17 380457 380457 1.7 1.7 1 0 0 0 0
350	342178637 62 380457 380457 1.7 1.7 2 94.224569739386 117.14430675868 211.36887649807 22601.058148545
351	342178699 17 380457 380457 1.7 1.7 1 1 1 1 1
352	342178716 17 409105 409105 1.8 1.8 1 0 0 0 0
353	342178733 62 409105 409105 1.8 1.8 2 90.332892809222 110.24435028239 200.57724309161 20313.848292468
354	342178795 17 409105 409105 1.8 1.8 1 1 1 1 1
355	342178812 17 409105 409105 1.8 1.8 1 0 0 0 0
356	342178829 61 409105 409105 1.8 1.8 2 94.96480542582 113.37152110952 208.33632653534 21871.41606825
357	342178890 17 409105 409105 1.8 1.8 1 1 1 1 1
358	342178907 17 409105 409105 1.8 1.8 1 0 0 0 0
359	342178924 62 409105 409105 1.8 1.8 2 95.637428498312 117.83924951331 213.47667801162 23032.60645563
360	342178986 17 409105 409105 1.8 1.8 1 1 1 1 1
361	342179003 17 556525 556525 2.3 2.3 1 0 0 0 0
362	342179020 61 556525 556525 2.3 2.3 2 95.04957444296 113.62107590118 208.67065034414 21944.170490729
363	342179081 17 556525 556525 2.3 2.3 1 1 1 1 1
364	342179098 17 556525 556525 2.3 2.3 1 0 0 0 0
365	342179115 62 556525 556525 2.3 2.3 2 94.489628683964 129.73322237133 224.22285105529 25758.998915682
366	342179177 17 556525 556525 2.3 2.3 1 1 1 1 1
367	342179194 17 586509 586509 2.4 2.4 1 0 0 0 0
368	342179211 62 586509 586509 2.4 2.4 2 91.916305223441 114.03254474917 205.94884997261 21452.028427901
369	342179273 17 586509 586509 2.4 2.4 1 1 1 1 1
370	342179290 17 616757 616757 2.5 2.5 1 0 0 0 0
371	342179307 62 616757 616757 2.5 2.5 2 92.007126576875 114.46935421221 206.47648078909 21568.544394694
372	342179369 17 616757 616757 2.5 2.5 1 1 1 1 1
373	342179386 17 616757 616757 2.5 2.5 1 0 0 0 0
374	342179403 62 616757 616757 2.5 2.5 2 90.673467608578 107.83416339857 198.50763100715 19849.884524033
375	342179465 17 616757 616757 2.5 2.5 1 1 1 1 1
376	342179482 17 647591 647591 2.6 2.6 1 0 0 0 0
377	342179499 62 647591 647591 2.6 2.6 2 96.276222960162 143.58476682533 239.86098978549 29885.696371759
378	342179561 17 647591 647591 2.6 2.6 1 1 1 1 1
379	342179578 17 647591 647591 2.6 2.6 1 0 0 0 0
380	342179595 61 647591 647591 2.6 2.6 2 92.21844934464 113.31216994612 205.53061929076 21343.890257428
381	342179656 17 647591 647591 2.6 2.6 1 1 1 1 1
382	342179673 17 647591 647591 2.6 2.6 1 0 0 0 0
383	342179690 62 647591 647591 2.6 2.6 2 92.542913843614 106.87489511272 199.41780895633 19986.434108021
384	342179752 17 647591 647591 2.6 2.6 1 1 1 1 1
385	342179769 17 679175 679175 2.7 2.7 1 0 0 0 0
386	342179786 62 679175 679175 2.7 2.7 2 90.673467608578 107.83416339857 198.50763100715 19849.884524033
387	342179848 17 679175 679175 2.7 2.7 1 1 1 1 1
388	342179865 17 711021 711021 2.8 2.8 1 0 0 0 0
389	342179882 62 711021 711021 2.8 2.8 2 94.525357987531 130.63823767595 225.16359566348 26001.392445748
390	342179944 17 711021 711021 2.8 2.8 1 1 1 1 1
391	342179961 17 711021 711021 2.8 2.8 1 0 0 0 0
392	342179978 62 711021 711021 2.8 2.8 2 93.193369103432 115.48390123036 208.67727033379 22021.535488231
393	342180040 17 711021 711021 2.8 2.8 1 1 1 1 1
394	342180057 17 743455 743455 2.9 2.9 1 0 0 0 0
395	342180074 62 743455 743455 2.9 2.9 2 87.662393465606 102.20257349892 189.86496696452 18130.06125792
396	342180136 17 743455 743455 2.9 2.9 1 1 1 1 1
397	342180153 15 776111 776111 3 3 1 0 0 0 0
398	342180168 58 776111 776111 3 3 2 97.124120925611 152.62150013487 249.74562106048 32726.41716899
399	342180226 15 776111 776111 3 3 1 1 1 1 1
400	342180241 17 809093 809093 3.1 3.1 1 0 0 0 0
401	342180258 61 809093 809093 3.1 3.1 2 88.297076083951 104.0954310472 192.39250713115 18632.232409877
402	342180319 17 809093 809093 3.1 3.1 1 1 1 1 1
403	342180336 17 809093 809093 3.1 3.1 1 0 0 0 0
404	342180353 61 809093 809093 3.1 3.1 2 93.93278048239 118.63422123158 212.56700171397 22897.445696377
405	342180414 17 809093 809093 3.1 3.1 1 1 1 1 1
406	342180431 17 909495 909495 3.4 3.4 1 0 0 0 0
407	342180448 62 909495 909495 3.4 3.4 2 94.871020736135 132.04098488389 226.91200562002 26435.332264623
408	342180510 17 909495 909495 3.4 3.4 1 1 1 1 1
409	342180527 17 976987 976987 3.6 3.6 1 0 0 0 0
410	342180544 62 976987 976987 3.6 3.6 2 96.320345127303 144.31304882539 240.63339395269 30103.864946721
411	342180606 17 976987 976987 3.6 3.6 1 1 1 1 1
412	342180623 18 1010965 1010965 3.7 3.7 1 0 0 0 0
413	342180641 63 1010965 1010965 3.7 3.7 2 91.748797808713 105.7234331868 197.47223099552 19595.286224149
414	342180704 18 1010965 1010965 3.7 3.7 1 1 1 1 1
415	342180722 18 1045271 1045271 3.8 3.8 1 0 0 0 0
416	342180740 64 1045271 1045271 3.8 3.8 2 87.729088766928 102.32245764691 190.05154641383 18166.278354778
417	342180804 18 1045271 1045271 3.8 3.8 1 1 1 1 1
418	342180822 18 1079789 1079789 3.9 3.9 1 0 0 0 0
419	342180840 64 1079789 1079789 3.9 3.9 2 92.399699252516 112.51919650481 204.91889575733 21198.274004044
420	342180904 18 1079789 1079789 3.9 3.9 1 1 1 1 1
421	342180922 16 1114569 1114569 4 4 1 0 0 0 0
422	342180938 60 1114569 1114569 4 4 2 90.421553180728 110.52679006931 200.94834325004 20392.228602642
423	342180998 16 1114569 1114569 4 4 1 1 1 1 1
424	342181014 18 1149751 1149751 4.1 4.1 1 0 0 0 0
425	342181032 64 1149751 1149751 4.1 4.1 2 93.308541822705 121.97736103987 215.28590286258 23584.96058333
426	342181096 18 1149751 1149751 4.1 4.1 1 1 1 1 1
427	342181114 18 1149751 1149751 4.1 4.1 1 0 0 0 0
428	342181132 64 1149751 1149751 4.1 4.1 2 90.510369684582 110.81042393685 201.32079362144 20471.077073505
429	342181196 18 1149751 1149751 4.1 4.1 1 1 1 1 1
430	342181214 18 1185335 1185335 4.2 4.2 1 0 0 0 0
431	342181232 64 1185335 1185335 4.2 4.2 2 95.013046471609 132.18667162029 227.1997180919 26500.795153866
432	342181296 18 1185335 1185335 4.2 4.2 1 1 1 1 1
433	342181314 18 1328785 1328785 4.6 4.6 1 0 0 0 0
434	342181332 64 1328785 1328785 4.6 4.6 2 88.460072542396 104.56982260042 193.02989514282 18760.03223289
435	342181396 18 1328785 1328785 4.6 4.6 1 1 1 1 1
436	342181414 18 1364957 1364957 4.7 4.7 1 0 0 0 0
437	342181432 64 1364957 1364957 4.7 4.7 2 90.344609839003 106.38527945773 196.72988929673 19479.97621226
438	342181496 18 1364957 1364957 4.7 4.7 1 1 1 1 1
439	342181514 18 1401343 1401343 4.8 4.8 1 0 0 0 0
440	342181532 63 1401343 1401343 4.8 4.8 2 92.71550659257 115.32764020846 208.04314680103 21896.629758768
441	342181595 18 1401343 1401343 4.8 4.8 1 1 1 1 1
442	342181613 16 1474695 1474695 5 5 1 0 0 0 0
443	342181629 60 1474695 1474695 5 5 2 94.871020736135 132.04098488389 226.91200562002 26435.332264623
444	342181689 16 1474695 1474695 5 5 1 1 1 1 1
445	342181705 16 1474695 1474695 5 5 1 0 0 0 0
446	342181721 60 1474695 1474695 5 5 2 91.072184893887 110.37336724404 201.44555213793 20476.423058134
447	342181781 16 1474695 1474695 5 5 1 1 1 1 1
448	342181797 16 1474695 1474695 5 5 1 0 0 0 0
449	342181813 60 1474695 1474695 5 5 2 91.523444372875 112.24562146048 203.76906583335 20975.620406924
450	342181873 16 1474695 1474695 5 5 1 1 1 1 1
451	342181889 18 1587171 1587171 5.3 5.3 1 0 0 0 0
452	342181907 64 1587171 1587171 5.3 5.3 2 87.840160470585 102.51897102918 190.35913149976 18226.033212379
453	342181971 18 1587171 1587171 5.3 5.3 1 1 1 1 1
454	342181989 18 1587171 1587171 5.3 5.3 1 0 0 0 0
455	342182007 64 1587171 1587171 5.3 5.3 2 91.886042354746 113.88907514503 205.77511749978 21413.766217009
456	342182071 18 1587171 1587171 5.3 5.3 1 1 1 1 1
457	342182089 18 1625161 1625161 5.4 5.4 1 0 0 0 0
458	342182107 63 1625161 1625161 5.4 5.4 2 92.360767551698 112.3830166409 204.74378419259 21160.453812047
459	342182170 18 1625161 1625161 5.4 5.4 1 1 1 1 1
460	342182188 18 1625161 1625161 5.4 5.4 1 0 0 0 0
461	342182206 64 1625161 1625161 5.4 5.4 2 91.855785484178 113.74665161275 205.60243709692 21375.786080027
462	342182270 18 1625161 1625161 5.4 5.4 1 1 1 1 1
463	342182288 16 1856371 1856371 6 6 1 0 0 0 0
464	342182304 60 1856371 1856371 6 6 2 92.891280536675 106.31945740669 199.21073794336 19932.617022996
465	342182364 16 1856371 1856371 6 6 1 1 1 1 1
466	342182380 16 1856371 1856371 6 6 1 0 0 0 0
467	342182396 60 1856371 1856371 6 6 2 90.747939107542 111.57096281146 202.318901919 20683.268194943
468	342182456 16 1856371 1856371 6 6 1 1 1 1 1
469	342182472 16 1856371 1856371 6 6 1 0 0 0 0
470	342182488 60 1856371 1856371 6 6 2 95.068601650952 111.30829723808 206.37689888904 21427.576053909
471	342182548 16 1856371 1856371 6 6 1 1 1 1 1
472	342182564 18 1895763 1895763 6.1 6.1 1 0 0 0 0
473	342182582 64 1895763 1895763 6.1 6.1 2 92.339568024097 105.13298518439 197.47255320849 19579.540396658
474	342182646 18 1895763 1895763 6.1 6.1 1 1 1 1 1
475	342182664 16 2252181 2252181 7 7 1 0 0 0 0
476	342182680 60 2252181 2252181 7 7 2 87.640154095125 102.16230160053 189.80245569566 18117.932478136
477	342182740 16 2252181 2252181 7 7 1 1 1 1 1
478	342182756 16 2252181 2252181 7 7 1 0 0 0 0
479	342182772 60 2252181 2252181 7 7 2 92.378510353769 105.21563136717 197.59414172093 19604.118259173
480	342182832 16 2252181 2252181 7 7 1 1 1 1 1
481	342182848 18 2332553 2332553 7.2 7.2 1 0 0 0 0
482	342182866 63 2332553 2332553 7.2 7.2 2 92.676891693824 115.1639148137 207.84080650753 21851.733529247
483	342182929 18 2332553 2332553 7.2 7.2 1 1 1 1 1
484	342182947 18 2453757 2453757 7.5 7.5 1 0 0 0 0
485	342182965 64 2453757 2453757 7.5 7.5 2 88.273778034163 104.02807042417 192.30184845833 18614.099324601
486	342183029 18 2453757 2453757 7.5 7.5 1 1 1 1 1
487	342183047 18 2453757 2453757 7.5 7.5 1 0 0 0 0
488	342183065 64 2453757 2453757 7.5 7.5 2 90.421553180728 110.52679006931 200.94834325004 20392.228602642
489	342183129 18 2453757 2453757 7.5 7.5 1 1 1 1 1
490	342183147 18 2535639 2535639 7.7 7.7 1 0 0 0 0
491	342183165 64 2535639 2535639 7.7 7.7 2 94.350307785247 129.53739848933 223.88770627458 25681.918186555
492	342183229 18 2535639 2535639 7.7 7.7 1 1 1 1 1
493	342183247 18 2700521 2700521 8.1 8.1 1 0 0 0 0
494	342183265 63 2700521 2700521 8.1 8.1 2 93.02672179327 116.69682712953 209.7235489228 22272.120429701
495	342183328 18 2700521 2700521 8.1 8.1 1 1 1 1 1
496	342183346 18 2783471 2783471 8.3 8.3 1 0 0 0 0
497	342183364 64 2783471 2783471 8.3 8.3 2 88.039746821556 102.86116216381 190.90090898536 18331.415702093
498	342183428 18 2783471 2783471 8.3 8.3 1 1 1 1 1
499	342183446 18 2825191 2825191 8.4 8.4 1 0 0 0 0
500	342183464 63 2825191 2825191 8.4 8.4 2 94.984744116489 132.1807958839 227.16554000039 26493.864415377
501	342183527 18 2825191 2825191 8.4 8.4 1 1 1 1 1
502	342183545 18 2867175 2867175 8.5 8.5 1 0 0 0 0
503	342183563 64 2867175 2867175 8.5 8.5 2 87.884554251966 102.59634885749 190.48090310946 18249.705674955
504	342183627 18 2867175 2867175 8.5 8.5 1 1 1 1 1
505	342183645 18 2951727 2951727 8.7 8.7 1 0 0 0 0
506	342183663 64 2951727 2951727 8.7 8.7 2 88.669323643494 105.18628397862 193.85560762211 18926.403292626
507	342183727 18 2951727 2951727 8.7 8.7 1 1 1 1 1
508	342183745 18 2951727 2951727 8.7 8.7 1 0 0 0 0
509	342183763 63 2951727 2951727 8.7 8.7 2 87.928925775643 102.6729859549 190.60191173055 18273.238032954
510	342183826 18 2951727 2951727 8.7 8.7 1 1 1 1 1
511	342183844 18 2994511 2994511 8.8 8.8 1 0 0 0 0
512	342183862 64 2994511 2994511 8.8 8.8 2 87.751312318644 102.36209812959 190.11341044824 18178.291947137
513	342183926 18 2994511 2994511 8.8 8.8 1 1 1 1 1
514	342183944 18 2994511 2994511 8.8 8.8 1 0 0 0 0
515	342183962 64 2994511 2994511 8.8 8.8 2 88.568790466835 103.68391143286 192.25270189969 18594.784134775
516	342184026 18 2994511 2994511 8.8 8.8 1 1 1 1 1
517	342184044 17 3514623 3514623 10 10 1 0 0 0 0
518	342184061 62 3514623 3514623 10 10 2 96.320345127303 144.31304882539 240.63339395269 30103.864946721
519	342184123 17 3514623 3514623 10 10 1 1 1 1 1
520	342184140 19 3645519 3645519 10.3 10.3 1 0 0 0 0
521	342184159 66 3645519 3645519 10.3 10.3 2 88.343663561437 104.23046871235 192.57413227378 18668.593499452
522	342184225 19 3645519 3645519 10.3 10.3 1 1 1 1 1
523	342184244 19 4303643 4303643 11.8 11.8 1 0 0 0 0
524	342184263 66 4303643 4303643 11.8 11.8 2 96.232158955511 142.87256388761 239.10472284313 29673.197929059
525	342184329 19 4303643 4303643 11.8 11.8 1 1 1 1 1
526	342184348 19 4524437 4524437 12.3 12.3 1 0 0 0 0
527	342184367 66 4524437 4524437 12.3 12.3 2 92.256306496064 113.45906834904 205.71537484511 21384.186278928
528	342184433 19 4524437 4524437 12.3 12.3 1 1 1 1 1
529	342184452 19 4746465 4746465 12.8 12.8 1 0 0 0 0
530	342184471 66 4746465 4746465 12.8 12.8 2 94.698983986334 131.50369274992 226.20267673625 26261.118774908
531	342184537 19 4746465 4746465 12.8 12.8 1 1 1 1 1
532	342184556 19 5014575 5014575 13.4 13.4 1 0 0 0 0
533	342184575 66 5014575 5014575 13.4 13.4 2 92.294226354546 113.60723704425 205.9014633988 21424.828527213
534	342184641 19 5014575 5014575 13.4 13.4 1 1 1 1 1
535	342184660 19 5688705 5688705 14.9 14.9 1 0 0 0 0
536	342184679 66 5688705 5688705 14.9 14.9 2 97.033949421255 153.16057022137 250.19451964263 32873.747610823
537	342184745 19 5688705 5688705 14.9 14.9 1 1 1 1 1
538	342184764 19 7452005 7452005 18.8 18.8 1 0 0 0 0
539	342184783 64 7452005 7452005 18.8 18.8 2 96.408762790863 145.811583749 242.22034653986 30555.667498256
540	342184847 19 7452005 7452005 18.8 18.8 1 1 1 1 1
541	342184866 20 11317827 11317827 27.3 27.3 1 0 0 0 0
542	342184886 68 11317827 11317827 27.3 27.3 2 92.037410178185 114.61713287507 206.65454305326 21607.972020809
543	342184954 20 11317827 11317827 27.3 27.3 1 1 1 1 1

